version 2
run General-0-20210804-13:28:18-17360
attr configname General
attr datetime 20210804-13:28:18
attr experiment General
attr inifile omnetpp.ini
attr iterationvars ""
attr iterationvarsf ""
attr measurement ""
attr network Network
attr processid 17360
attr repetition 0
attr replication #0
attr resultdir results
attr runnumber 0
attr seedset 0
param **.numOfNode 10
param **.numOfRack 3
param **.numOfCoreSwitch 0
param **.numOfMEMS 2
param **.packetLength 1000byte
param **.offerload "0.1+0.1* 0"
param Network.EDataRate 10Gbps
param Network.ODataRate 100Gbps
param **.Rack_Rate 10Gbps
param **.T_night 0.0003
param **.T_day 0.003
param **.T_report 0.003
param **.Server_Rate 0.0000008
param **.algorithm_ID 0
param **.deadlineWeight 12.8

scalar Network.rack[0].Server[0].app "#average throughout" 39507.784366908
scalar Network.rack[0].Server[0].app #sent 2988
scalar Network.rack[0].Server[0].app #received 6
scalar Network.rack[0].Server[0].app #m_received 6
scalar Network.rack[0].Server[0].app #e_received 0
statistic Network.rack[0].Server[0].app Latency
field count 6
field mean 1.68e-006
field stddev 0
field min 1.68e-006
field max 1.68e-006
field sum 1.008e-005
field sqrsum 1.69344e-011
bin	-inf	0
bin	0	0
bin	1.12e-007	0
bin	2.24e-007	0
bin	3.36e-007	0
bin	4.48e-007	0
bin	5.6e-007	0
bin	6.72e-007	0
bin	7.84e-007	0
bin	8.96e-007	0
bin	1.008e-006	0
bin	1.12e-006	0
bin	1.232e-006	0
bin	1.344e-006	0
bin	1.456e-006	0
bin	1.568e-006	0
bin	1.68e-006	6
bin	1.792e-006	0
bin	1.904e-006	0
bin	2.016e-006	0
bin	2.128e-006	0
bin	2.24e-006	0
bin	2.352e-006	0
bin	2.464e-006	0
bin	2.576e-006	0
bin	2.688e-006	0
bin	2.8e-006	0
bin	2.912e-006	0
bin	3.024e-006	0
bin	3.136e-006	0
bin	3.248e-006	0
bin	3.36e-006	0
statistic Network.rack[0].Server[0].app m_Latency
field count 6
field mean 1.68e-006
field stddev 0
field min 1.68e-006
field max 1.68e-006
field sum 1.008e-005
field sqrsum 1.69344e-011
bin	-inf	0
bin	0	0
bin	1.12e-007	0
bin	2.24e-007	0
bin	3.36e-007	0
bin	4.48e-007	0
bin	5.6e-007	0
bin	6.72e-007	0
bin	7.84e-007	0
bin	8.96e-007	0
bin	1.008e-006	0
bin	1.12e-006	0
bin	1.232e-006	0
bin	1.344e-006	0
bin	1.456e-006	0
bin	1.568e-006	0
bin	1.68e-006	6
bin	1.792e-006	0
bin	1.904e-006	0
bin	2.016e-006	0
bin	2.128e-006	0
bin	2.24e-006	0
bin	2.352e-006	0
bin	2.464e-006	0
bin	2.576e-006	0
bin	2.688e-006	0
bin	2.8e-006	0
bin	2.912e-006	0
bin	3.024e-006	0
bin	3.136e-006	0
bin	3.248e-006	0
bin	3.36e-006	0
statistic Network.rack[0].Server[0].app e_Latency
field count 0
field mean nan
field stddev nan
field min nan
field max nan
field sum 0
field sqrsum 0
bin	-inf	0
bin	0	0
bin	0.033333333333333	0
bin	0.066666666666667	0
bin	0.1	0
bin	0.13333333333333	0
bin	0.16666666666667	0
bin	0.2	0
bin	0.23333333333333	0
bin	0.26666666666667	0
bin	0.3	0
bin	0.33333333333333	0
bin	0.36666666666667	0
bin	0.4	0
bin	0.43333333333333	0
bin	0.46666666666667	0
bin	0.5	0
bin	0.53333333333333	0
bin	0.56666666666667	0
bin	0.6	0
bin	0.63333333333333	0
bin	0.66666666666667	0
bin	0.7	0
bin	0.73333333333333	0
bin	0.76666666666667	0
bin	0.8	0
bin	0.83333333333333	0
bin	0.86666666666667	0
bin	0.9	0
bin	0.93333333333333	0
bin	0.96666666666667	0
bin	1	0
statistic Network.rack[0].Server[0].app FCT
field count 2
field mean 3.28e-006
field stddev 0
field min 3.28e-006
field max 3.28e-006
field sum 6.56e-006
field sqrsum 2.15168e-011
bin	-inf	0
bin	0	0
bin	2.1866666666667e-007	0
bin	4.3733333333333e-007	0
bin	6.56e-007	0
bin	8.7466666666667e-007	0
bin	1.0933333333333e-006	0
bin	1.312e-006	0
bin	1.5306666666667e-006	0
bin	1.7493333333333e-006	0
bin	1.968e-006	0
bin	2.1866666666667e-006	0
bin	2.4053333333333e-006	0
bin	2.624e-006	0
bin	2.8426666666667e-006	0
bin	3.0613333333333e-006	0
bin	3.28e-006	2
bin	3.4986666666667e-006	0
bin	3.7173333333333e-006	0
bin	3.936e-006	0
bin	4.1546666666667e-006	0
bin	4.3733333333333e-006	0
bin	4.592e-006	0
bin	4.8106666666667e-006	0
bin	5.0293333333333e-006	0
bin	5.248e-006	0
bin	5.4666666666667e-006	0
bin	5.6853333333333e-006	0
bin	5.904e-006	0
bin	6.1226666666667e-006	0
bin	6.3413333333333e-006	0
bin	6.56e-006	0
statistic Network.rack[0].Server[0].app m_FCT
field count 2
field mean 3.28e-006
field stddev 0
field min 3.28e-006
field max 3.28e-006
field sum 6.56e-006
field sqrsum 2.15168e-011
bin	-inf	0
bin	0	0
bin	2.1866666666667e-007	0
bin	4.3733333333333e-007	0
bin	6.56e-007	0
bin	8.7466666666667e-007	0
bin	1.0933333333333e-006	0
bin	1.312e-006	0
bin	1.5306666666667e-006	0
bin	1.7493333333333e-006	0
bin	1.968e-006	0
bin	2.1866666666667e-006	0
bin	2.4053333333333e-006	0
bin	2.624e-006	0
bin	2.8426666666667e-006	0
bin	3.0613333333333e-006	0
bin	3.28e-006	2
bin	3.4986666666667e-006	0
bin	3.7173333333333e-006	0
bin	3.936e-006	0
bin	4.1546666666667e-006	0
bin	4.3733333333333e-006	0
bin	4.592e-006	0
bin	4.8106666666667e-006	0
bin	5.0293333333333e-006	0
bin	5.248e-006	0
bin	5.4666666666667e-006	0
bin	5.6853333333333e-006	0
bin	5.904e-006	0
bin	6.1226666666667e-006	0
bin	6.3413333333333e-006	0
bin	6.56e-006	0
statistic Network.rack[0].Server[0].app e_FCT
field count 0
field mean nan
field stddev nan
field min nan
field max nan
field sum 0
field sqrsum 0
bin	-inf	0
bin	0	0
bin	0.033333333333333	0
bin	0.066666666666667	0
bin	0.1	0
bin	0.13333333333333	0
bin	0.16666666666667	0
bin	0.2	0
bin	0.23333333333333	0
bin	0.26666666666667	0
bin	0.3	0
bin	0.33333333333333	0
bin	0.36666666666667	0
bin	0.4	0
bin	0.43333333333333	0
bin	0.46666666666667	0
bin	0.5	0
bin	0.53333333333333	0
bin	0.56666666666667	0
bin	0.6	0
bin	0.63333333333333	0
bin	0.66666666666667	0
bin	0.7	0
bin	0.73333333333333	0
bin	0.76666666666667	0
bin	0.8	0
bin	0.83333333333333	0
bin	0.86666666666667	0
bin	0.9	0
bin	0.93333333333333	0
bin	0.96666666666667	0
bin	1	0
scalar Network.rack[0].Server[0].app hopCount:mean nan
attr interpolationmode none
attr title "hop count of arrived packets, mean"
scalar Network.rack[0].Server[0].app hopCount:max nan
attr interpolationmode none
attr title "hop count of arrived packets, max"
scalar Network.rack[0].Server[0].app endToEndDelay:mean nan
attr interpolationmode none
attr title "end-to-end delay of arrived packets, mean"
attr unit s
scalar Network.rack[0].Server[0].app endToEndDelay:max nan
attr interpolationmode none
attr title "end-to-end delay of arrived packets, max"
attr unit s
scalar Network.rack[0].Server[0].l2Queue rxBytes:count 0
attr interpolationmode none
attr title "received packet byte length, count"
attr unit bytes
scalar Network.rack[0].Server[0].l2Queue rxBytes:sum 0
attr interpolationmode none
attr title "received packet byte length, sum"
attr unit bytes
statistic Network.rack[0].Server[0].l2Queue rxBytes:histogram
field count 0
field mean nan
field stddev nan
field min nan
field max nan
field sum 0
field sqrsum 0
attr interpolationmode none
attr title "received packet byte length, histogram"
attr unit bytes
bin	-inf	0
bin	0	0
bin	1	0
scalar Network.rack[0].Server[0].l2Queue txBytes:count 0
attr interpolationmode none
attr title "transmitting packet byte length, count"
attr unit bytes
scalar Network.rack[0].Server[0].l2Queue txBytes:sum 0
attr interpolationmode none
attr title "transmitting packet byte length, sum"
attr unit bytes
statistic Network.rack[0].Server[0].l2Queue txBytes:histogram
field count 0
field mean nan
field stddev nan
field min nan
field max nan
field sum 0
field sqrsum 0
attr interpolationmode none
attr title "transmitting packet byte length, histogram"
attr unit bytes
bin	-inf	0
bin	0	0
bin	1	0
scalar Network.rack[0].Server[0].l2Queue drop:count 0
attr interpolationmode none
attr title "dropped packet byte length, count"
attr unit bytes
scalar Network.rack[0].Server[0].l2Queue drop:sum 0
attr interpolationmode none
attr title "dropped packet byte length, sum"
attr unit bytes
scalar Network.rack[0].Server[0].l2Queue busy:timeavg nan
attr interpolationmode sample-hold
attr title "server busy state, timeavg"
scalar Network.rack[0].Server[0].l2Queue qlen:timeavg nan
attr interpolationmode sample-hold
attr title "queue length, timeavg"
scalar Network.rack[0].Server[0].l2Queue qlen:max nan
attr interpolationmode sample-hold
attr title "queue length, max"
scalar Network.rack[0].Server[1].app "#average throughout" 144861.876012
scalar Network.rack[0].Server[1].app #sent 19
scalar Network.rack[0].Server[1].app #received 22
scalar Network.rack[0].Server[1].app #m_received 22
scalar Network.rack[0].Server[1].app #e_received 0
statistic Network.rack[0].Server[1].app Latency
field count 22
field mean 6.4311850909091e-006
field stddev 1.0315965935983e-005
field min 1.68e-006
field max 2.7811518e-005
field sum 0.000141486072
field sqrsum 3.1447253338573e-009
bin	-inf	0
bin	0	18
bin	1.8541012e-006	0
bin	3.7082024e-006	0
bin	5.5623036e-006	0
bin	7.4164048e-006	0
bin	9.270506e-006	0
bin	1.11246072e-005	0
bin	1.29787084e-005	0
bin	1.48328096e-005	0
bin	1.66869108e-005	0
bin	1.8541012e-005	0
bin	2.03951132e-005	0
bin	2.22492144e-005	0
bin	2.41033156e-005	0
bin	2.59574168e-005	0
bin	2.7811518e-005	4
bin	2.96656192e-005	0
bin	3.15197204e-005	0
bin	3.33738216e-005	0
bin	3.52279228e-005	0
bin	3.7082024e-005	0
bin	3.89361252e-005	0
bin	4.07902264e-005	0
bin	4.26443276e-005	0
bin	4.44984288e-005	0
bin	4.635253e-005	0
bin	4.82066312e-005	0
bin	5.00607324e-005	0
bin	5.19148336e-005	0
bin	5.37689348e-005	0
bin	5.5623036e-005	0
statistic Network.rack[0].Server[1].app m_Latency
field count 22
field mean 6.4311850909091e-006
field stddev 1.0315965935983e-005
field min 1.68e-006
field max 2.7811518e-005
field sum 0.000141486072
field sqrsum 3.1447253338573e-009
bin	-inf	0
bin	0	18
bin	1.8541012e-006	0
bin	3.7082024e-006	0
bin	5.5623036e-006	0
bin	7.4164048e-006	0
bin	9.270506e-006	0
bin	1.11246072e-005	0
bin	1.29787084e-005	0
bin	1.48328096e-005	0
bin	1.66869108e-005	0
bin	1.8541012e-005	0
bin	2.03951132e-005	0
bin	2.22492144e-005	0
bin	2.41033156e-005	0
bin	2.59574168e-005	0
bin	2.7811518e-005	4
bin	2.96656192e-005	0
bin	3.15197204e-005	0
bin	3.33738216e-005	0
bin	3.52279228e-005	0
bin	3.7082024e-005	0
bin	3.89361252e-005	0
bin	4.07902264e-005	0
bin	4.26443276e-005	0
bin	4.44984288e-005	0
bin	4.635253e-005	0
bin	4.82066312e-005	0
bin	5.00607324e-005	0
bin	5.19148336e-005	0
bin	5.37689348e-005	0
bin	5.5623036e-005	0
statistic Network.rack[0].Server[1].app e_Latency
field count 0
field mean nan
field stddev nan
field min nan
field max nan
field sum 0
field sqrsum 0
bin	-inf	0
bin	0	0
bin	0.033333333333333	0
bin	0.066666666666667	0
bin	0.1	0
bin	0.13333333333333	0
bin	0.16666666666667	0
bin	0.2	0
bin	0.23333333333333	0
bin	0.26666666666667	0
bin	0.3	0
bin	0.33333333333333	0
bin	0.36666666666667	0
bin	0.4	0
bin	0.43333333333333	0
bin	0.46666666666667	0
bin	0.5	0
bin	0.53333333333333	0
bin	0.56666666666667	0
bin	0.6	0
bin	0.63333333333333	0
bin	0.66666666666667	0
bin	0.7	0
bin	0.73333333333333	0
bin	0.76666666666667	0
bin	0.8	0
bin	0.83333333333333	0
bin	0.86666666666667	0
bin	0.9	0
bin	0.93333333333333	0
bin	0.96666666666667	0
bin	1	0
statistic Network.rack[0].Server[1].app FCT
field count 7
field mean 7.1273597142857e-006
field stddev 1.0200093336064e-005
field min 2.48e-006
field max 3.0211518e-005
field sum 4.9891518e-005
field sqrsum 9.7984621986432e-010
bin	-inf	0
bin	0	0
bin	2.0141012e-006	4
bin	4.0282024e-006	2
bin	6.0423036e-006	0
bin	8.0564048e-006	0
bin	1.0070506e-005	0
bin	1.20846072e-005	0
bin	1.40987084e-005	0
bin	1.61128096e-005	0
bin	1.81269108e-005	0
bin	2.0141012e-005	0
bin	2.21551132e-005	0
bin	2.41692144e-005	0
bin	2.61833156e-005	0
bin	2.81974168e-005	0
bin	3.0211518e-005	1
bin	3.22256192e-005	0
bin	3.42397204e-005	0
bin	3.62538216e-005	0
bin	3.82679228e-005	0
bin	4.0282024e-005	0
bin	4.22961252e-005	0
bin	4.43102264e-005	0
bin	4.63243276e-005	0
bin	4.83384288e-005	0
bin	5.035253e-005	0
bin	5.23666312e-005	0
bin	5.43807324e-005	0
bin	5.63948336e-005	0
bin	5.84089348e-005	0
bin	6.0423036e-005	0
statistic Network.rack[0].Server[1].app m_FCT
field count 7
field mean 7.1273597142857e-006
field stddev 1.0200093336064e-005
field min 2.48e-006
field max 3.0211518e-005
field sum 4.9891518e-005
field sqrsum 9.7984621986432e-010
bin	-inf	0
bin	0	0
bin	2.0141012e-006	4
bin	4.0282024e-006	2
bin	6.0423036e-006	0
bin	8.0564048e-006	0
bin	1.0070506e-005	0
bin	1.20846072e-005	0
bin	1.40987084e-005	0
bin	1.61128096e-005	0
bin	1.81269108e-005	0
bin	2.0141012e-005	0
bin	2.21551132e-005	0
bin	2.41692144e-005	0
bin	2.61833156e-005	0
bin	2.81974168e-005	0
bin	3.0211518e-005	1
bin	3.22256192e-005	0
bin	3.42397204e-005	0
bin	3.62538216e-005	0
bin	3.82679228e-005	0
bin	4.0282024e-005	0
bin	4.22961252e-005	0
bin	4.43102264e-005	0
bin	4.63243276e-005	0
bin	4.83384288e-005	0
bin	5.035253e-005	0
bin	5.23666312e-005	0
bin	5.43807324e-005	0
bin	5.63948336e-005	0
bin	5.84089348e-005	0
bin	6.0423036e-005	0
statistic Network.rack[0].Server[1].app e_FCT
field count 0
field mean nan
field stddev nan
field min nan
field max nan
field sum 0
field sqrsum 0
bin	-inf	0
bin	0	0
bin	0.033333333333333	0
bin	0.066666666666667	0
bin	0.1	0
bin	0.13333333333333	0
bin	0.16666666666667	0
bin	0.2	0
bin	0.23333333333333	0
bin	0.26666666666667	0
bin	0.3	0
bin	0.33333333333333	0
bin	0.36666666666667	0
bin	0.4	0
bin	0.43333333333333	0
bin	0.46666666666667	0
bin	0.5	0
bin	0.53333333333333	0
bin	0.56666666666667	0
bin	0.6	0
bin	0.63333333333333	0
bin	0.66666666666667	0
bin	0.7	0
bin	0.73333333333333	0
bin	0.76666666666667	0
bin	0.8	0
bin	0.83333333333333	0
bin	0.86666666666667	0
bin	0.9	0
bin	0.93333333333333	0
bin	0.96666666666667	0
bin	1	0
scalar Network.rack[0].Server[1].app hopCount:mean nan
attr interpolationmode none
attr title "hop count of arrived packets, mean"
scalar Network.rack[0].Server[1].app hopCount:max nan
attr interpolationmode none
attr title "hop count of arrived packets, max"
scalar Network.rack[0].Server[1].app endToEndDelay:mean nan
attr interpolationmode none
attr title "end-to-end delay of arrived packets, mean"
attr unit s
scalar Network.rack[0].Server[1].app endToEndDelay:max nan
attr interpolationmode none
attr title "end-to-end delay of arrived packets, max"
attr unit s
scalar Network.rack[0].Server[1].l2Queue rxBytes:count 0
attr interpolationmode none
attr title "received packet byte length, count"
attr unit bytes
scalar Network.rack[0].Server[1].l2Queue rxBytes:sum 0
attr interpolationmode none
attr title "received packet byte length, sum"
attr unit bytes
statistic Network.rack[0].Server[1].l2Queue rxBytes:histogram
field count 0
field mean nan
field stddev nan
field min nan
field max nan
field sum 0
field sqrsum 0
attr interpolationmode none
attr title "received packet byte length, histogram"
attr unit bytes
bin	-inf	0
bin	0	0
bin	1	0
scalar Network.rack[0].Server[1].l2Queue txBytes:count 0
attr interpolationmode none
attr title "transmitting packet byte length, count"
attr unit bytes
scalar Network.rack[0].Server[1].l2Queue txBytes:sum 0
attr interpolationmode none
attr title "transmitting packet byte length, sum"
attr unit bytes
statistic Network.rack[0].Server[1].l2Queue txBytes:histogram
field count 0
field mean nan
field stddev nan
field min nan
field max nan
field sum 0
field sqrsum 0
attr interpolationmode none
attr title "transmitting packet byte length, histogram"
attr unit bytes
bin	-inf	0
bin	0	0
bin	1	0
scalar Network.rack[0].Server[1].l2Queue drop:count 0
attr interpolationmode none
attr title "dropped packet byte length, count"
attr unit bytes
scalar Network.rack[0].Server[1].l2Queue drop:sum 0
attr interpolationmode none
attr title "dropped packet byte length, sum"
attr unit bytes
scalar Network.rack[0].Server[1].l2Queue busy:timeavg nan
attr interpolationmode sample-hold
attr title "server busy state, timeavg"
scalar Network.rack[0].Server[1].l2Queue qlen:timeavg nan
attr interpolationmode sample-hold
attr title "queue length, timeavg"
scalar Network.rack[0].Server[1].l2Queue qlen:max nan
attr interpolationmode sample-hold
attr title "queue length, max"
scalar Network.rack[0].Server[2].app "#average throughout" 85600.199461634
scalar Network.rack[0].Server[2].app #sent 2935
scalar Network.rack[0].Server[2].app #received 13
scalar Network.rack[0].Server[2].app #m_received 13
scalar Network.rack[0].Server[2].app #e_received 0
statistic Network.rack[0].Server[2].app Latency
field count 13
field mean 1.7129598461538e-005
field stddev 1.2749304136716e-005
field min 1.68e-006
field max 2.8596644e-005
field sum 0.00022268478
field sqrsum 5.7650379365419e-009
bin	-inf	0
bin	0	5
bin	1.9064429333333e-006	0
bin	3.8128858666667e-006	0
bin	5.7193288e-006	0
bin	7.6257717333333e-006	0
bin	9.5322146666667e-006	0
bin	1.14386576e-005	0
bin	1.3345100533333e-005	0
bin	1.5251543466667e-005	0
bin	1.71579864e-005	0
bin	1.9064429333333e-005	0
bin	2.0970872266667e-005	0
bin	2.28773152e-005	1
bin	2.4783758133333e-005	3
bin	2.6690201066667e-005	3
bin	2.8596644e-005	1
bin	3.0503086933333e-005	0
bin	3.2409529866667e-005	0
bin	3.43159728e-005	0
bin	3.6222415733333e-005	0
bin	3.8128858666667e-005	0
bin	4.00353016e-005	0
bin	4.1941744533333e-005	0
bin	4.3848187466667e-005	0
bin	4.57546304e-005	0
bin	4.7661073333333e-005	0
bin	4.9567516266667e-005	0
bin	5.14739592e-005	0
bin	5.3380402133333e-005	0
bin	5.5286845066667e-005	0
bin	5.7193288e-005	0
statistic Network.rack[0].Server[2].app m_Latency
field count 13
field mean 1.7129598461538e-005
field stddev 1.2749304136716e-005
field min 1.68e-006
field max 2.8596644e-005
field sum 0.00022268478
field sqrsum 5.7650379365419e-009
bin	-inf	0
bin	0	5
bin	1.9064429333333e-006	0
bin	3.8128858666667e-006	0
bin	5.7193288e-006	0
bin	7.6257717333333e-006	0
bin	9.5322146666667e-006	0
bin	1.14386576e-005	0
bin	1.3345100533333e-005	0
bin	1.5251543466667e-005	0
bin	1.71579864e-005	0
bin	1.9064429333333e-005	0
bin	2.0970872266667e-005	0
bin	2.28773152e-005	1
bin	2.4783758133333e-005	3
bin	2.6690201066667e-005	3
bin	2.8596644e-005	1
bin	3.0503086933333e-005	0
bin	3.2409529866667e-005	0
bin	3.43159728e-005	0
bin	3.6222415733333e-005	0
bin	3.8128858666667e-005	0
bin	4.00353016e-005	0
bin	4.1941744533333e-005	0
bin	4.3848187466667e-005	0
bin	4.57546304e-005	0
bin	4.7661073333333e-005	0
bin	4.9567516266667e-005	0
bin	5.14739592e-005	0
bin	5.3380402133333e-005	0
bin	5.5286845066667e-005	0
bin	5.7193288e-005	0
statistic Network.rack[0].Server[2].app e_Latency
field count 0
field mean nan
field stddev nan
field min nan
field max nan
field sum 0
field sqrsum 0
bin	-inf	0
bin	0	0
bin	0.033333333333333	0
bin	0.066666666666667	0
bin	0.1	0
bin	0.13333333333333	0
bin	0.16666666666667	0
bin	0.2	0
bin	0.23333333333333	0
bin	0.26666666666667	0
bin	0.3	0
bin	0.33333333333333	0
bin	0.36666666666667	0
bin	0.4	0
bin	0.43333333333333	0
bin	0.46666666666667	0
bin	0.5	0
bin	0.53333333333333	0
bin	0.56666666666667	0
bin	0.6	0
bin	0.63333333333333	0
bin	0.66666666666667	0
bin	0.7	0
bin	0.73333333333333	0
bin	0.76666666666667	0
bin	0.8	0
bin	0.83333333333333	0
bin	0.86666666666667	0
bin	0.9	0
bin	0.93333333333333	0
bin	0.96666666666667	0
bin	1	0
statistic Network.rack[0].Server[2].app FCT
field count 5
field mean 1.79811492e-005
field stddev 1.3896798158613e-005
field min 2.505436e-006
field max 3.0996644e-005
field sum 8.9905746e-005
field sqrsum 2.3890926290082e-009
bin	-inf	0
bin	0	0
bin	2.0664429333333e-006	2
bin	4.1328858666667e-006	0
bin	6.1993288e-006	0
bin	8.2657717333333e-006	0
bin	1.0332214666667e-005	0
bin	1.23986576e-005	0
bin	1.4465100533333e-005	0
bin	1.6531543466667e-005	0
bin	1.85979864e-005	0
bin	2.0664429333333e-005	0
bin	2.2730872266667e-005	0
bin	2.47973152e-005	1
bin	2.6863758133333e-005	1
bin	2.8930201066667e-005	0
bin	3.0996644e-005	1
bin	3.3063086933333e-005	0
bin	3.5129529866667e-005	0
bin	3.71959728e-005	0
bin	3.9262415733333e-005	0
bin	4.1328858666667e-005	0
bin	4.33953016e-005	0
bin	4.5461744533333e-005	0
bin	4.7528187466667e-005	0
bin	4.95946304e-005	0
bin	5.1661073333333e-005	0
bin	5.3727516266667e-005	0
bin	5.57939592e-005	0
bin	5.7860402133333e-005	0
bin	5.9926845066667e-005	0
bin	6.1993288e-005	0
statistic Network.rack[0].Server[2].app m_FCT
field count 5
field mean 1.79811492e-005
field stddev 1.3896798158613e-005
field min 2.505436e-006
field max 3.0996644e-005
field sum 8.9905746e-005
field sqrsum 2.3890926290082e-009
bin	-inf	0
bin	0	0
bin	2.0664429333333e-006	2
bin	4.1328858666667e-006	0
bin	6.1993288e-006	0
bin	8.2657717333333e-006	0
bin	1.0332214666667e-005	0
bin	1.23986576e-005	0
bin	1.4465100533333e-005	0
bin	1.6531543466667e-005	0
bin	1.85979864e-005	0
bin	2.0664429333333e-005	0
bin	2.2730872266667e-005	0
bin	2.47973152e-005	1
bin	2.6863758133333e-005	1
bin	2.8930201066667e-005	0
bin	3.0996644e-005	1
bin	3.3063086933333e-005	0
bin	3.5129529866667e-005	0
bin	3.71959728e-005	0
bin	3.9262415733333e-005	0
bin	4.1328858666667e-005	0
bin	4.33953016e-005	0
bin	4.5461744533333e-005	0
bin	4.7528187466667e-005	0
bin	4.95946304e-005	0
bin	5.1661073333333e-005	0
bin	5.3727516266667e-005	0
bin	5.57939592e-005	0
bin	5.7860402133333e-005	0
bin	5.9926845066667e-005	0
bin	6.1993288e-005	0
statistic Network.rack[0].Server[2].app e_FCT
field count 0
field mean nan
field stddev nan
field min nan
field max nan
field sum 0
field sqrsum 0
bin	-inf	0
bin	0	0
bin	0.033333333333333	0
bin	0.066666666666667	0
bin	0.1	0
bin	0.13333333333333	0
bin	0.16666666666667	0
bin	0.2	0
bin	0.23333333333333	0
bin	0.26666666666667	0
bin	0.3	0
bin	0.33333333333333	0
bin	0.36666666666667	0
bin	0.4	0
bin	0.43333333333333	0
bin	0.46666666666667	0
bin	0.5	0
bin	0.53333333333333	0
bin	0.56666666666667	0
bin	0.6	0
bin	0.63333333333333	0
bin	0.66666666666667	0
bin	0.7	0
bin	0.73333333333333	0
bin	0.76666666666667	0
bin	0.8	0
bin	0.83333333333333	0
bin	0.86666666666667	0
bin	0.9	0
bin	0.93333333333333	0
bin	0.96666666666667	0
bin	1	0
scalar Network.rack[0].Server[2].app hopCount:mean nan
attr interpolationmode none
attr title "hop count of arrived packets, mean"
scalar Network.rack[0].Server[2].app hopCount:max nan
attr interpolationmode none
attr title "hop count of arrived packets, max"
scalar Network.rack[0].Server[2].app endToEndDelay:mean nan
attr interpolationmode none
attr title "end-to-end delay of arrived packets, mean"
attr unit s
scalar Network.rack[0].Server[2].app endToEndDelay:max nan
attr interpolationmode none
attr title "end-to-end delay of arrived packets, max"
attr unit s
scalar Network.rack[0].Server[2].l2Queue rxBytes:count 0
attr interpolationmode none
attr title "received packet byte length, count"
attr unit bytes
scalar Network.rack[0].Server[2].l2Queue rxBytes:sum 0
attr interpolationmode none
attr title "received packet byte length, sum"
attr unit bytes
statistic Network.rack[0].Server[2].l2Queue rxBytes:histogram
field count 0
field mean nan
field stddev nan
field min nan
field max nan
field sum 0
field sqrsum 0
attr interpolationmode none
attr title "received packet byte length, histogram"
attr unit bytes
bin	-inf	0
bin	0	0
bin	1	0
scalar Network.rack[0].Server[2].l2Queue txBytes:count 0
attr interpolationmode none
attr title "transmitting packet byte length, count"
attr unit bytes
scalar Network.rack[0].Server[2].l2Queue txBytes:sum 0
attr interpolationmode none
attr title "transmitting packet byte length, sum"
attr unit bytes
statistic Network.rack[0].Server[2].l2Queue txBytes:histogram
field count 0
field mean nan
field stddev nan
field min nan
field max nan
field sum 0
field sqrsum 0
attr interpolationmode none
attr title "transmitting packet byte length, histogram"
attr unit bytes
bin	-inf	0
bin	0	0
bin	1	0
scalar Network.rack[0].Server[2].l2Queue drop:count 0
attr interpolationmode none
attr title "dropped packet byte length, count"
attr unit bytes
scalar Network.rack[0].Server[2].l2Queue drop:sum 0
attr interpolationmode none
attr title "dropped packet byte length, sum"
attr unit bytes
scalar Network.rack[0].Server[2].l2Queue busy:timeavg nan
attr interpolationmode sample-hold
attr title "server busy state, timeavg"
scalar Network.rack[0].Server[2].l2Queue qlen:timeavg nan
attr interpolationmode sample-hold
attr title "queue length, timeavg"
scalar Network.rack[0].Server[2].l2Queue qlen:max nan
attr interpolationmode sample-hold
attr title "queue length, max"
scalar Network.rack[0].Server[3].app "#average throughout" 131692.61455636
scalar Network.rack[0].Server[3].app #sent 14
scalar Network.rack[0].Server[3].app #received 20
scalar Network.rack[0].Server[3].app #m_received 20
scalar Network.rack[0].Server[3].app #e_received 0
statistic Network.rack[0].Server[3].app Latency
field count 20
field mean 1.239040415e-005
field stddev 1.2570291520385e-005
field min 1.68e-006
field max 2.8784673e-005
field sum 0.000247808083
field sqrsum 6.0726746492484e-009
bin	-inf	0
bin	0	9
bin	1.9189782e-006	0
bin	3.8379564e-006	3
bin	5.7569346e-006	0
bin	7.6759128e-006	0
bin	9.594891e-006	0
bin	1.15138692e-005	0
bin	1.34328474e-005	0
bin	1.53518256e-005	0
bin	1.72708038e-005	0
bin	1.9189782e-005	0
bin	2.11087602e-005	0
bin	2.30277384e-005	0
bin	2.49467166e-005	4
bin	2.68656948e-005	2
bin	2.8784673e-005	2
bin	3.07036512e-005	0
bin	3.26226294e-005	0
bin	3.45416076e-005	0
bin	3.64605858e-005	0
bin	3.8379564e-005	0
bin	4.02985422e-005	0
bin	4.22175204e-005	0
bin	4.41364986e-005	0
bin	4.60554768e-005	0
bin	4.7974455e-005	0
bin	4.98934332e-005	0
bin	5.18124114e-005	0
bin	5.37313896e-005	0
bin	5.56503678e-005	0
bin	5.7569346e-005	0
statistic Network.rack[0].Server[3].app m_Latency
field count 20
field mean 1.239040415e-005
field stddev 1.2570291520385e-005
field min 1.68e-006
field max 2.8784673e-005
field sum 0.000247808083
field sqrsum 6.0726746492484e-009
bin	-inf	0
bin	0	9
bin	1.9189782e-006	0
bin	3.8379564e-006	3
bin	5.7569346e-006	0
bin	7.6759128e-006	0
bin	9.594891e-006	0
bin	1.15138692e-005	0
bin	1.34328474e-005	0
bin	1.53518256e-005	0
bin	1.72708038e-005	0
bin	1.9189782e-005	0
bin	2.11087602e-005	0
bin	2.30277384e-005	0
bin	2.49467166e-005	4
bin	2.68656948e-005	2
bin	2.8784673e-005	2
bin	3.07036512e-005	0
bin	3.26226294e-005	0
bin	3.45416076e-005	0
bin	3.64605858e-005	0
bin	3.8379564e-005	0
bin	4.02985422e-005	0
bin	4.22175204e-005	0
bin	4.41364986e-005	0
bin	4.60554768e-005	0
bin	4.7974455e-005	0
bin	4.98934332e-005	0
bin	5.18124114e-005	0
bin	5.37313896e-005	0
bin	5.56503678e-005	0
bin	5.7569346e-005	0
statistic Network.rack[0].Server[3].app e_Latency
field count 0
field mean nan
field stddev nan
field min nan
field max nan
field sum 0
field sqrsum 0
bin	-inf	0
bin	0	0
bin	0.033333333333333	0
bin	0.066666666666667	0
bin	0.1	0
bin	0.13333333333333	0
bin	0.16666666666667	0
bin	0.2	0
bin	0.23333333333333	0
bin	0.26666666666667	0
bin	0.3	0
bin	0.33333333333333	0
bin	0.36666666666667	0
bin	0.4	0
bin	0.43333333333333	0
bin	0.46666666666667	0
bin	0.5	0
bin	0.53333333333333	0
bin	0.56666666666667	0
bin	0.6	0
bin	0.63333333333333	0
bin	0.66666666666667	0
bin	0.7	0
bin	0.73333333333333	0
bin	0.76666666666667	0
bin	0.8	0
bin	0.83333333333333	0
bin	0.86666666666667	0
bin	0.9	0
bin	0.93333333333333	0
bin	0.96666666666667	0
bin	1	0
statistic Network.rack[0].Server[3].app FCT
field count 7
field mean 1.4686903857143e-005
field stddev 1.3348116415991e-005
field min 2.48e-006
field max 2.9584673e-005
field sum 0.000102808327
field sqrsum 2.5789692854919e-009
bin	-inf	0
bin	0	0
bin	1.9723115333333e-006	2
bin	3.9446230666667e-006	1
bin	5.9169346e-006	1
bin	7.8892461333333e-006	0
bin	9.8615576666667e-006	0
bin	1.18338692e-005	0
bin	1.3806180733333e-005	0
bin	1.5778492266667e-005	0
bin	1.77508038e-005	0
bin	1.9723115333333e-005	0
bin	2.1695426866667e-005	0
bin	2.36677384e-005	0
bin	2.5640049933333e-005	0
bin	2.7612361466667e-005	2
bin	2.9584673e-005	1
bin	3.1556984533333e-005	0
bin	3.3529296066667e-005	0
bin	3.55016076e-005	0
bin	3.7473919133333e-005	0
bin	3.9446230666667e-005	0
bin	4.14185422e-005	0
bin	4.3390853733333e-005	0
bin	4.5363165266667e-005	0
bin	4.73354768e-005	0
bin	4.9307788333333e-005	0
bin	5.1280099866667e-005	0
bin	5.32524114e-005	0
bin	5.5224722933333e-005	0
bin	5.7197034466667e-005	0
bin	5.9169346e-005	0
statistic Network.rack[0].Server[3].app m_FCT
field count 7
field mean 1.4686903857143e-005
field stddev 1.3348116415991e-005
field min 2.48e-006
field max 2.9584673e-005
field sum 0.000102808327
field sqrsum 2.5789692854919e-009
bin	-inf	0
bin	0	0
bin	1.9723115333333e-006	2
bin	3.9446230666667e-006	1
bin	5.9169346e-006	1
bin	7.8892461333333e-006	0
bin	9.8615576666667e-006	0
bin	1.18338692e-005	0
bin	1.3806180733333e-005	0
bin	1.5778492266667e-005	0
bin	1.77508038e-005	0
bin	1.9723115333333e-005	0
bin	2.1695426866667e-005	0
bin	2.36677384e-005	0
bin	2.5640049933333e-005	0
bin	2.7612361466667e-005	2
bin	2.9584673e-005	1
bin	3.1556984533333e-005	0
bin	3.3529296066667e-005	0
bin	3.55016076e-005	0
bin	3.7473919133333e-005	0
bin	3.9446230666667e-005	0
bin	4.14185422e-005	0
bin	4.3390853733333e-005	0
bin	4.5363165266667e-005	0
bin	4.73354768e-005	0
bin	4.9307788333333e-005	0
bin	5.1280099866667e-005	0
bin	5.32524114e-005	0
bin	5.5224722933333e-005	0
bin	5.7197034466667e-005	0
bin	5.9169346e-005	0
statistic Network.rack[0].Server[3].app e_FCT
field count 0
field mean nan
field stddev nan
field min nan
field max nan
field sum 0
field sqrsum 0
bin	-inf	0
bin	0	0
bin	0.033333333333333	0
bin	0.066666666666667	0
bin	0.1	0
bin	0.13333333333333	0
bin	0.16666666666667	0
bin	0.2	0
bin	0.23333333333333	0
bin	0.26666666666667	0
bin	0.3	0
bin	0.33333333333333	0
bin	0.36666666666667	0
bin	0.4	0
bin	0.43333333333333	0
bin	0.46666666666667	0
bin	0.5	0
bin	0.53333333333333	0
bin	0.56666666666667	0
bin	0.6	0
bin	0.63333333333333	0
bin	0.66666666666667	0
bin	0.7	0
bin	0.73333333333333	0
bin	0.76666666666667	0
bin	0.8	0
bin	0.83333333333333	0
bin	0.86666666666667	0
bin	0.9	0
bin	0.93333333333333	0
bin	0.96666666666667	0
bin	1	0
scalar Network.rack[0].Server[3].app hopCount:mean nan
attr interpolationmode none
attr title "hop count of arrived packets, mean"
scalar Network.rack[0].Server[3].app hopCount:max nan
attr interpolationmode none
attr title "hop count of arrived packets, max"
scalar Network.rack[0].Server[3].app endToEndDelay:mean nan
attr interpolationmode none
attr title "end-to-end delay of arrived packets, mean"
attr unit s
scalar Network.rack[0].Server[3].app endToEndDelay:max nan
attr interpolationmode none
attr title "end-to-end delay of arrived packets, max"
attr unit s
scalar Network.rack[0].Server[3].l2Queue rxBytes:count 0
attr interpolationmode none
attr title "received packet byte length, count"
attr unit bytes
scalar Network.rack[0].Server[3].l2Queue rxBytes:sum 0
attr interpolationmode none
attr title "received packet byte length, sum"
attr unit bytes
statistic Network.rack[0].Server[3].l2Queue rxBytes:histogram
field count 0
field mean nan
field stddev nan
field min nan
field max nan
field sum 0
field sqrsum 0
attr interpolationmode none
attr title "received packet byte length, histogram"
attr unit bytes
bin	-inf	0
bin	0	0
bin	1	0
scalar Network.rack[0].Server[3].l2Queue txBytes:count 0
attr interpolationmode none
attr title "transmitting packet byte length, count"
attr unit bytes
scalar Network.rack[0].Server[3].l2Queue txBytes:sum 0
attr interpolationmode none
attr title "transmitting packet byte length, sum"
attr unit bytes
statistic Network.rack[0].Server[3].l2Queue txBytes:histogram
field count 0
field mean nan
field stddev nan
field min nan
field max nan
field sum 0
field sqrsum 0
attr interpolationmode none
attr title "transmitting packet byte length, histogram"
attr unit bytes
bin	-inf	0
bin	0	0
bin	1	0
scalar Network.rack[0].Server[3].l2Queue drop:count 0
attr interpolationmode none
attr title "dropped packet byte length, count"
attr unit bytes
scalar Network.rack[0].Server[3].l2Queue drop:sum 0
attr interpolationmode none
attr title "dropped packet byte length, sum"
attr unit bytes
scalar Network.rack[0].Server[3].l2Queue busy:timeavg nan
attr interpolationmode sample-hold
attr title "server busy state, timeavg"
scalar Network.rack[0].Server[3].l2Queue qlen:timeavg nan
attr interpolationmode sample-hold
attr title "queue length, timeavg"
scalar Network.rack[0].Server[3].l2Queue qlen:max nan
attr interpolationmode sample-hold
attr title "queue length, max"
scalar Network.rack[0].Server[4].app "#average throughout" 1000863.8706283
scalar Network.rack[0].Server[4].app #sent 2928
scalar Network.rack[0].Server[4].app #received 152
scalar Network.rack[0].Server[4].app #m_received 17
scalar Network.rack[0].Server[4].app #e_received 135
statistic Network.rack[0].Server[4].app Latency
field count 152
field mean 2.9533887822368e-005
field stddev 3.3592896048007e-006
field min 2.5617389e-005
field max 3.6017389e-005
field sum 0.004489150949
field sqrsum 1.3428608936943e-007
bin	-inf	0
bin	0	0
bin	2.0811592666667e-006	0
bin	4.1623185333333e-006	0
bin	6.2434778e-006	0
bin	8.3246370666667e-006	0
bin	1.0405796333333e-005	0
bin	1.24869556e-005	0
bin	1.4568114866667e-005	0
bin	1.6649274133333e-005	0
bin	1.87304334e-005	0
bin	2.0811592666667e-005	0
bin	2.2892751933333e-005	0
bin	2.49739112e-005	32
bin	2.7055070466667e-005	53
bin	2.9136229733333e-005	8
bin	3.1217389e-005	39
bin	3.3298548266667e-005	5
bin	3.5379707533333e-005	15
bin	3.74608668e-005	0
bin	3.9542026066667e-005	0
bin	4.1623185333333e-005	0
bin	4.37043446e-005	0
bin	4.5785503866667e-005	0
bin	4.7866663133333e-005	0
bin	4.99478224e-005	0
bin	5.2028981666667e-005	0
bin	5.4110140933333e-005	0
bin	5.61913002e-005	0
bin	5.8272459466667e-005	0
bin	6.0353618733333e-005	0
bin	6.2434778e-005	0
statistic Network.rack[0].Server[4].app m_Latency
field count 17
field mean 3.0376672588235e-005
field stddev 2.7918177236647e-006
field min 2.5916334e-005
field max 3.5548861e-005
field sum 0.000516403434
field sqrsum 1.5811325977293e-008
bin	-inf	0
bin	0	0
bin	2.3699240666667e-006	0
bin	4.7398481333333e-006	0
bin	7.1097722e-006	0
bin	9.4796962666667e-006	0
bin	1.1849620333333e-005	0
bin	1.42195444e-005	0
bin	1.6589468466667e-005	0
bin	1.8959392533333e-005	0
bin	2.13293166e-005	0
bin	2.3699240666667e-005	1
bin	2.6069164733333e-005	3
bin	2.84390888e-005	7
bin	3.0809012866667e-005	3
bin	3.3178936933333e-005	2
bin	3.5548861e-005	1
bin	3.7918785066667e-005	0
bin	4.0288709133333e-005	0
bin	4.26586332e-005	0
bin	4.5028557266667e-005	0
bin	4.7398481333333e-005	0
bin	4.97684054e-005	0
bin	5.2138329466667e-005	0
bin	5.4508253533333e-005	0
bin	5.68781776e-005	0
bin	5.9248101666667e-005	0
bin	6.1618025733333e-005	0
bin	6.39879498e-005	0
bin	6.6357873866667e-005	0
bin	6.8727797933333e-005	0
bin	7.1097722e-005	0
statistic Network.rack[0].Server[4].app e_Latency
field count 135
field mean 2.942775937037e-005
field stddev 3.4182406680617e-006
field min 2.5617389e-005
field max 3.6017389e-005
field sum 0.003972747515
field sqrsum 1.1847476339214e-007
bin	-inf	0
bin	0	0
bin	2.1344926e-006	0
bin	4.2689852e-006	0
bin	6.4034778e-006	0
bin	8.5379704e-006	0
bin	1.0672463e-005	0
bin	1.28069556e-005	0
bin	1.49414482e-005	0
bin	1.70759408e-005	0
bin	1.92104334e-005	0
bin	2.1344926e-005	0
bin	2.34794186e-005	0
bin	2.56139112e-005	66
bin	2.77484038e-005	15
bin	2.98828964e-005	18
bin	3.2017389e-005	20
bin	3.41518816e-005	16
bin	3.62863742e-005	0
bin	3.84208668e-005	0
bin	4.05553594e-005	0
bin	4.2689852e-005	0
bin	4.48243446e-005	0
bin	4.69588372e-005	0
bin	4.90933298e-005	0
bin	5.12278224e-005	0
bin	5.3362315e-005	0
bin	5.54968076e-005	0
bin	5.76313002e-005	0
bin	5.97657928e-005	0
bin	6.19002854e-005	0
bin	6.4034778e-005	0
statistic Network.rack[0].Server[4].app FCT
field count 6
field mean 3.1910394333333e-005
field stddev 3.6448173418051e-006
field min 2.7516334e-005
field max 3.7948861e-005
field sum 0.000191462366
field sqrsum 6.1760630663286e-009
bin	-inf	0
bin	0	0
bin	2.5299240666667e-006	0
bin	5.0598481333333e-006	0
bin	7.5897722e-006	0
bin	1.0119696266667e-005	0
bin	1.2649620333333e-005	0
bin	1.51795444e-005	0
bin	1.7709468466667e-005	0
bin	2.0239392533333e-005	0
bin	2.27693166e-005	0
bin	2.5299240666667e-005	1
bin	2.7829164733333e-005	1
bin	3.03590888e-005	2
bin	3.2889012866667e-005	1
bin	3.5418936933333e-005	0
bin	3.7948861e-005	1
bin	4.0478785066667e-005	0
bin	4.3008709133333e-005	0
bin	4.55386332e-005	0
bin	4.8068557266667e-005	0
bin	5.0598481333333e-005	0
bin	5.31284054e-005	0
bin	5.5658329466667e-005	0
bin	5.8188253533333e-005	0
bin	6.07181776e-005	0
bin	6.3248101666667e-005	0
bin	6.5778025733333e-005	0
bin	6.83079498e-005	0
bin	7.0837873866667e-005	0
bin	7.3367797933333e-005	0
bin	7.5897722e-005	0
statistic Network.rack[0].Server[4].app m_FCT
field count 6
field mean 3.1910394333333e-005
field stddev 3.6448173418051e-006
field min 2.7516334e-005
field max 3.7948861e-005
field sum 0.000191462366
field sqrsum 6.1760630663286e-009
bin	-inf	0
bin	0	0
bin	2.5299240666667e-006	0
bin	5.0598481333333e-006	0
bin	7.5897722e-006	0
bin	1.0119696266667e-005	0
bin	1.2649620333333e-005	0
bin	1.51795444e-005	0
bin	1.7709468466667e-005	0
bin	2.0239392533333e-005	0
bin	2.27693166e-005	0
bin	2.5299240666667e-005	1
bin	2.7829164733333e-005	1
bin	3.03590888e-005	2
bin	3.2889012866667e-005	1
bin	3.5418936933333e-005	0
bin	3.7948861e-005	1
bin	4.0478785066667e-005	0
bin	4.3008709133333e-005	0
bin	4.55386332e-005	0
bin	4.8068557266667e-005	0
bin	5.0598481333333e-005	0
bin	5.31284054e-005	0
bin	5.5658329466667e-005	0
bin	5.8188253533333e-005	0
bin	6.07181776e-005	0
bin	6.3248101666667e-005	0
bin	6.5778025733333e-005	0
bin	6.83079498e-005	0
bin	7.0837873866667e-005	0
bin	7.3367797933333e-005	0
bin	7.5897722e-005	0
statistic Network.rack[0].Server[4].app e_FCT
field count 0
field mean nan
field stddev nan
field min nan
field max nan
field sum 0
field sqrsum 0
bin	-inf	0
bin	0	0
bin	0.033333333333333	0
bin	0.066666666666667	0
bin	0.1	0
bin	0.13333333333333	0
bin	0.16666666666667	0
bin	0.2	0
bin	0.23333333333333	0
bin	0.26666666666667	0
bin	0.3	0
bin	0.33333333333333	0
bin	0.36666666666667	0
bin	0.4	0
bin	0.43333333333333	0
bin	0.46666666666667	0
bin	0.5	0
bin	0.53333333333333	0
bin	0.56666666666667	0
bin	0.6	0
bin	0.63333333333333	0
bin	0.66666666666667	0
bin	0.7	0
bin	0.73333333333333	0
bin	0.76666666666667	0
bin	0.8	0
bin	0.83333333333333	0
bin	0.86666666666667	0
bin	0.9	0
bin	0.93333333333333	0
bin	0.96666666666667	0
bin	1	0
scalar Network.rack[0].Server[4].app hopCount:mean nan
attr interpolationmode none
attr title "hop count of arrived packets, mean"
scalar Network.rack[0].Server[4].app hopCount:max nan
attr interpolationmode none
attr title "hop count of arrived packets, max"
scalar Network.rack[0].Server[4].app endToEndDelay:mean nan
attr interpolationmode none
attr title "end-to-end delay of arrived packets, mean"
attr unit s
scalar Network.rack[0].Server[4].app endToEndDelay:max nan
attr interpolationmode none
attr title "end-to-end delay of arrived packets, max"
attr unit s
scalar Network.rack[0].Server[4].l2Queue rxBytes:count 0
attr interpolationmode none
attr title "received packet byte length, count"
attr unit bytes
scalar Network.rack[0].Server[4].l2Queue rxBytes:sum 0
attr interpolationmode none
attr title "received packet byte length, sum"
attr unit bytes
statistic Network.rack[0].Server[4].l2Queue rxBytes:histogram
field count 0
field mean nan
field stddev nan
field min nan
field max nan
field sum 0
field sqrsum 0
attr interpolationmode none
attr title "received packet byte length, histogram"
attr unit bytes
bin	-inf	0
bin	0	0
bin	1	0
scalar Network.rack[0].Server[4].l2Queue txBytes:count 0
attr interpolationmode none
attr title "transmitting packet byte length, count"
attr unit bytes
scalar Network.rack[0].Server[4].l2Queue txBytes:sum 0
attr interpolationmode none
attr title "transmitting packet byte length, sum"
attr unit bytes
statistic Network.rack[0].Server[4].l2Queue txBytes:histogram
field count 0
field mean nan
field stddev nan
field min nan
field max nan
field sum 0
field sqrsum 0
attr interpolationmode none
attr title "transmitting packet byte length, histogram"
attr unit bytes
bin	-inf	0
bin	0	0
bin	1	0
scalar Network.rack[0].Server[4].l2Queue drop:count 0
attr interpolationmode none
attr title "dropped packet byte length, count"
attr unit bytes
scalar Network.rack[0].Server[4].l2Queue drop:sum 0
attr interpolationmode none
attr title "dropped packet byte length, sum"
attr unit bytes
scalar Network.rack[0].Server[4].l2Queue busy:timeavg nan
attr interpolationmode sample-hold
attr title "server busy state, timeavg"
scalar Network.rack[0].Server[4].l2Queue qlen:timeavg nan
attr interpolationmode sample-hold
attr title "queue length, timeavg"
scalar Network.rack[0].Server[4].l2Queue qlen:max nan
attr interpolationmode sample-hold
attr title "queue length, max"
scalar Network.rack[0].Server[5].app "#average throughout" 85600.199461634
scalar Network.rack[0].Server[5].app #sent 25
scalar Network.rack[0].Server[5].app #received 13
scalar Network.rack[0].Server[5].app #m_received 13
scalar Network.rack[0].Server[5].app #e_received 0
statistic Network.rack[0].Server[5].app Latency
field count 13
field mean 1.5236514384615e-005
field stddev 1.3192925120909e-005
field min 1.68e-006
field max 2.9208955e-005
field sum 0.000198074687
field sqrsum 5.1066070966547e-009
bin	-inf	0
bin	0	6
bin	1.9472636666667e-006	0
bin	3.8945273333333e-006	0
bin	5.841791e-006	0
bin	7.7890546666667e-006	0
bin	9.7363183333333e-006	0
bin	1.1683582e-005	0
bin	1.3630845666667e-005	0
bin	1.5578109333333e-005	0
bin	1.7525373e-005	0
bin	1.9472636666667e-005	0
bin	2.1419900333333e-005	1
bin	2.3367164e-005	1
bin	2.5314427666667e-005	2
bin	2.7261691333333e-005	3
bin	2.9208955e-005	0
bin	3.1156218666667e-005	0
bin	3.3103482333333e-005	0
bin	3.5050746e-005	0
bin	3.6998009666667e-005	0
bin	3.8945273333333e-005	0
bin	4.0892537e-005	0
bin	4.2839800666667e-005	0
bin	4.4787064333333e-005	0
bin	4.6734328e-005	0
bin	4.8681591666667e-005	0
bin	5.0628855333333e-005	0
bin	5.2576119e-005	0
bin	5.4523382666667e-005	0
bin	5.6470646333333e-005	0
bin	5.841791e-005	0
statistic Network.rack[0].Server[5].app m_Latency
field count 13
field mean 1.5236514384615e-005
field stddev 1.3192925120909e-005
field min 1.68e-006
field max 2.9208955e-005
field sum 0.000198074687
field sqrsum 5.1066070966547e-009
bin	-inf	0
bin	0	6
bin	1.9472636666667e-006	0
bin	3.8945273333333e-006	0
bin	5.841791e-006	0
bin	7.7890546666667e-006	0
bin	9.7363183333333e-006	0
bin	1.1683582e-005	0
bin	1.3630845666667e-005	0
bin	1.5578109333333e-005	0
bin	1.7525373e-005	0
bin	1.9472636666667e-005	0
bin	2.1419900333333e-005	1
bin	2.3367164e-005	1
bin	2.5314427666667e-005	2
bin	2.7261691333333e-005	3
bin	2.9208955e-005	0
bin	3.1156218666667e-005	0
bin	3.3103482333333e-005	0
bin	3.5050746e-005	0
bin	3.6998009666667e-005	0
bin	3.8945273333333e-005	0
bin	4.0892537e-005	0
bin	4.2839800666667e-005	0
bin	4.4787064333333e-005	0
bin	4.6734328e-005	0
bin	4.8681591666667e-005	0
bin	5.0628855333333e-005	0
bin	5.2576119e-005	0
bin	5.4523382666667e-005	0
bin	5.6470646333333e-005	0
bin	5.841791e-005	0
statistic Network.rack[0].Server[5].app e_Latency
field count 0
field mean nan
field stddev nan
field min nan
field max nan
field sum 0
field sqrsum 0
bin	-inf	0
bin	0	0
bin	0.033333333333333	0
bin	0.066666666666667	0
bin	0.1	0
bin	0.13333333333333	0
bin	0.16666666666667	0
bin	0.2	0
bin	0.23333333333333	0
bin	0.26666666666667	0
bin	0.3	0
bin	0.33333333333333	0
bin	0.36666666666667	0
bin	0.4	0
bin	0.43333333333333	0
bin	0.46666666666667	0
bin	0.5	0
bin	0.53333333333333	0
bin	0.56666666666667	0
bin	0.6	0
bin	0.63333333333333	0
bin	0.66666666666667	0
bin	0.7	0
bin	0.73333333333333	0
bin	0.76666666666667	0
bin	0.8	0
bin	0.83333333333333	0
bin	0.86666666666667	0
bin	0.9	0
bin	0.93333333333333	0
bin	0.96666666666667	0
bin	1	0
statistic Network.rack[0].Server[5].app FCT
field count 5
field mean 1.79905732e-005
field stddev 1.3606046857083e-005
field min 3.28e-006
field max 3.0808955e-005
field sum 8.9952866e-005
field sqrsum 2.3588016646313e-009
bin	-inf	0
bin	0	0
bin	2.0539303333333e-006	2
bin	4.1078606666667e-006	0
bin	6.161791e-006	0
bin	8.2157213333333e-006	0
bin	1.0269651666667e-005	0
bin	1.2323582e-005	0
bin	1.4377512333333e-005	0
bin	1.6431442666667e-005	0
bin	1.8485373e-005	0
bin	2.0539303333333e-005	0
bin	2.2593233666667e-005	1
bin	2.4647164e-005	0
bin	2.6701094333333e-005	1
bin	2.8755024666667e-005	1
bin	3.0808955e-005	0
bin	3.2862885333333e-005	0
bin	3.4916815666667e-005	0
bin	3.6970746e-005	0
bin	3.9024676333333e-005	0
bin	4.1078606666667e-005	0
bin	4.3132537e-005	0
bin	4.5186467333333e-005	0
bin	4.7240397666667e-005	0
bin	4.9294328e-005	0
bin	5.1348258333333e-005	0
bin	5.3402188666667e-005	0
bin	5.5456119e-005	0
bin	5.7510049333333e-005	0
bin	5.9563979666667e-005	0
bin	6.161791e-005	0
statistic Network.rack[0].Server[5].app m_FCT
field count 5
field mean 1.79905732e-005
field stddev 1.3606046857083e-005
field min 3.28e-006
field max 3.0808955e-005
field sum 8.9952866e-005
field sqrsum 2.3588016646313e-009
bin	-inf	0
bin	0	0
bin	2.0539303333333e-006	2
bin	4.1078606666667e-006	0
bin	6.161791e-006	0
bin	8.2157213333333e-006	0
bin	1.0269651666667e-005	0
bin	1.2323582e-005	0
bin	1.4377512333333e-005	0
bin	1.6431442666667e-005	0
bin	1.8485373e-005	0
bin	2.0539303333333e-005	0
bin	2.2593233666667e-005	1
bin	2.4647164e-005	0
bin	2.6701094333333e-005	1
bin	2.8755024666667e-005	1
bin	3.0808955e-005	0
bin	3.2862885333333e-005	0
bin	3.4916815666667e-005	0
bin	3.6970746e-005	0
bin	3.9024676333333e-005	0
bin	4.1078606666667e-005	0
bin	4.3132537e-005	0
bin	4.5186467333333e-005	0
bin	4.7240397666667e-005	0
bin	4.9294328e-005	0
bin	5.1348258333333e-005	0
bin	5.3402188666667e-005	0
bin	5.5456119e-005	0
bin	5.7510049333333e-005	0
bin	5.9563979666667e-005	0
bin	6.161791e-005	0
statistic Network.rack[0].Server[5].app e_FCT
field count 0
field mean nan
field stddev nan
field min nan
field max nan
field sum 0
field sqrsum 0
bin	-inf	0
bin	0	0
bin	0.033333333333333	0
bin	0.066666666666667	0
bin	0.1	0
bin	0.13333333333333	0
bin	0.16666666666667	0
bin	0.2	0
bin	0.23333333333333	0
bin	0.26666666666667	0
bin	0.3	0
bin	0.33333333333333	0
bin	0.36666666666667	0
bin	0.4	0
bin	0.43333333333333	0
bin	0.46666666666667	0
bin	0.5	0
bin	0.53333333333333	0
bin	0.56666666666667	0
bin	0.6	0
bin	0.63333333333333	0
bin	0.66666666666667	0
bin	0.7	0
bin	0.73333333333333	0
bin	0.76666666666667	0
bin	0.8	0
bin	0.83333333333333	0
bin	0.86666666666667	0
bin	0.9	0
bin	0.93333333333333	0
bin	0.96666666666667	0
bin	1	0
scalar Network.rack[0].Server[5].app hopCount:mean nan
attr interpolationmode none
attr title "hop count of arrived packets, mean"
scalar Network.rack[0].Server[5].app hopCount:max nan
attr interpolationmode none
attr title "hop count of arrived packets, max"
scalar Network.rack[0].Server[5].app endToEndDelay:mean nan
attr interpolationmode none
attr title "end-to-end delay of arrived packets, mean"
attr unit s
scalar Network.rack[0].Server[5].app endToEndDelay:max nan
attr interpolationmode none
attr title "end-to-end delay of arrived packets, max"
attr unit s
scalar Network.rack[0].Server[5].l2Queue rxBytes:count 0
attr interpolationmode none
attr title "received packet byte length, count"
attr unit bytes
scalar Network.rack[0].Server[5].l2Queue rxBytes:sum 0
attr interpolationmode none
attr title "received packet byte length, sum"
attr unit bytes
statistic Network.rack[0].Server[5].l2Queue rxBytes:histogram
field count 0
field mean nan
field stddev nan
field min nan
field max nan
field sum 0
field sqrsum 0
attr interpolationmode none
attr title "received packet byte length, histogram"
attr unit bytes
bin	-inf	0
bin	0	0
bin	1	0
scalar Network.rack[0].Server[5].l2Queue txBytes:count 0
attr interpolationmode none
attr title "transmitting packet byte length, count"
attr unit bytes
scalar Network.rack[0].Server[5].l2Queue txBytes:sum 0
attr interpolationmode none
attr title "transmitting packet byte length, sum"
attr unit bytes
statistic Network.rack[0].Server[5].l2Queue txBytes:histogram
field count 0
field mean nan
field stddev nan
field min nan
field max nan
field sum 0
field sqrsum 0
attr interpolationmode none
attr title "transmitting packet byte length, histogram"
attr unit bytes
bin	-inf	0
bin	0	0
bin	1	0
scalar Network.rack[0].Server[5].l2Queue drop:count 0
attr interpolationmode none
attr title "dropped packet byte length, count"
attr unit bytes
scalar Network.rack[0].Server[5].l2Queue drop:sum 0
attr interpolationmode none
attr title "dropped packet byte length, sum"
attr unit bytes
scalar Network.rack[0].Server[5].l2Queue busy:timeavg nan
attr interpolationmode sample-hold
attr title "server busy state, timeavg"
scalar Network.rack[0].Server[5].l2Queue qlen:timeavg nan
attr interpolationmode sample-hold
attr title "queue length, timeavg"
scalar Network.rack[0].Server[5].l2Queue qlen:max nan
attr interpolationmode sample-hold
attr title "queue length, max"
scalar Network.rack[0].Server[6].app "#average throughout" 52677.045822544
scalar Network.rack[0].Server[6].app #sent 3039
scalar Network.rack[0].Server[6].app #received 8
scalar Network.rack[0].Server[6].app #m_received 8
scalar Network.rack[0].Server[6].app #e_received 0
statistic Network.rack[0].Server[6].app Latency
field count 8
field mean 9.7649445e-006
field stddev 8.6431692314521e-006
field min 1.68e-006
field max 1.7849889e-005
field sum 7.8119556e-005
field sqrsum 1.2857637492493e-009
bin	-inf	0
bin	0	0
bin	1.1899926e-006	4
bin	2.3799852e-006	0
bin	3.5699778e-006	0
bin	4.7599704e-006	0
bin	5.949963e-006	0
bin	7.1399556e-006	0
bin	8.3299482e-006	0
bin	9.5199408e-006	0
bin	1.07099334e-005	0
bin	1.1899926e-005	0
bin	1.30899186e-005	0
bin	1.42799112e-005	0
bin	1.54699038e-005	0
bin	1.66598964e-005	4
bin	1.7849889e-005	0
bin	1.90398816e-005	0
bin	2.02298742e-005	0
bin	2.14198668e-005	0
bin	2.26098594e-005	0
bin	2.3799852e-005	0
bin	2.49898446e-005	0
bin	2.61798372e-005	0
bin	2.73698298e-005	0
bin	2.85598224e-005	0
bin	2.9749815e-005	0
bin	3.09398076e-005	0
bin	3.21298002e-005	0
bin	3.33197928e-005	0
bin	3.45097854e-005	0
bin	3.5699778e-005	0
statistic Network.rack[0].Server[6].app m_Latency
field count 8
field mean 9.7649445e-006
field stddev 8.6431692314521e-006
field min 1.68e-006
field max 1.7849889e-005
field sum 7.8119556e-005
field sqrsum 1.2857637492493e-009
bin	-inf	0
bin	0	0
bin	1.1899926e-006	4
bin	2.3799852e-006	0
bin	3.5699778e-006	0
bin	4.7599704e-006	0
bin	5.949963e-006	0
bin	7.1399556e-006	0
bin	8.3299482e-006	0
bin	9.5199408e-006	0
bin	1.07099334e-005	0
bin	1.1899926e-005	0
bin	1.30899186e-005	0
bin	1.42799112e-005	0
bin	1.54699038e-005	0
bin	1.66598964e-005	4
bin	1.7849889e-005	0
bin	1.90398816e-005	0
bin	2.02298742e-005	0
bin	2.14198668e-005	0
bin	2.26098594e-005	0
bin	2.3799852e-005	0
bin	2.49898446e-005	0
bin	2.61798372e-005	0
bin	2.73698298e-005	0
bin	2.85598224e-005	0
bin	2.9749815e-005	0
bin	3.09398076e-005	0
bin	3.21298002e-005	0
bin	3.33197928e-005	0
bin	3.45097854e-005	0
bin	3.5699778e-005	0
statistic Network.rack[0].Server[6].app e_Latency
field count 0
field mean nan
field stddev nan
field min nan
field max nan
field sum 0
field sqrsum 0
bin	-inf	0
bin	0	0
bin	0.033333333333333	0
bin	0.066666666666667	0
bin	0.1	0
bin	0.13333333333333	0
bin	0.16666666666667	0
bin	0.2	0
bin	0.23333333333333	0
bin	0.26666666666667	0
bin	0.3	0
bin	0.33333333333333	0
bin	0.36666666666667	0
bin	0.4	0
bin	0.43333333333333	0
bin	0.46666666666667	0
bin	0.5	0
bin	0.53333333333333	0
bin	0.56666666666667	0
bin	0.6	0
bin	0.63333333333333	0
bin	0.66666666666667	0
bin	0.7	0
bin	0.73333333333333	0
bin	0.76666666666667	0
bin	0.8	0
bin	0.83333333333333	0
bin	0.86666666666667	0
bin	0.9	0
bin	0.93333333333333	0
bin	0.96666666666667	0
bin	1	0
statistic Network.rack[0].Server[6].app FCT
field count 2
field mean 1.21649445e-005
field stddev 1.1433838162934e-005
field min 4.08e-006
field max 2.0249889e-005
field sum 2.4329889e-005
field sqrsum 4.2670440451232e-010
bin	-inf	0
bin	0	0
bin	1.3499926e-006	0
bin	2.6999852e-006	0
bin	4.0499778e-006	1
bin	5.3999704e-006	0
bin	6.749963e-006	0
bin	8.0999556e-006	0
bin	9.4499482e-006	0
bin	1.07999408e-005	0
bin	1.21499334e-005	0
bin	1.3499926e-005	0
bin	1.48499186e-005	0
bin	1.61999112e-005	0
bin	1.75499038e-005	0
bin	1.88998964e-005	0
bin	2.0249889e-005	1
bin	2.15998816e-005	0
bin	2.29498742e-005	0
bin	2.42998668e-005	0
bin	2.56498594e-005	0
bin	2.6999852e-005	0
bin	2.83498446e-005	0
bin	2.96998372e-005	0
bin	3.10498298e-005	0
bin	3.23998224e-005	0
bin	3.3749815e-005	0
bin	3.50998076e-005	0
bin	3.64498002e-005	0
bin	3.77997928e-005	0
bin	3.91497854e-005	0
bin	4.0499778e-005	0
statistic Network.rack[0].Server[6].app m_FCT
field count 2
field mean 1.21649445e-005
field stddev 1.1433838162934e-005
field min 4.08e-006
field max 2.0249889e-005
field sum 2.4329889e-005
field sqrsum 4.2670440451232e-010
bin	-inf	0
bin	0	0
bin	1.3499926e-006	0
bin	2.6999852e-006	0
bin	4.0499778e-006	1
bin	5.3999704e-006	0
bin	6.749963e-006	0
bin	8.0999556e-006	0
bin	9.4499482e-006	0
bin	1.07999408e-005	0
bin	1.21499334e-005	0
bin	1.3499926e-005	0
bin	1.48499186e-005	0
bin	1.61999112e-005	0
bin	1.75499038e-005	0
bin	1.88998964e-005	0
bin	2.0249889e-005	1
bin	2.15998816e-005	0
bin	2.29498742e-005	0
bin	2.42998668e-005	0
bin	2.56498594e-005	0
bin	2.6999852e-005	0
bin	2.83498446e-005	0
bin	2.96998372e-005	0
bin	3.10498298e-005	0
bin	3.23998224e-005	0
bin	3.3749815e-005	0
bin	3.50998076e-005	0
bin	3.64498002e-005	0
bin	3.77997928e-005	0
bin	3.91497854e-005	0
bin	4.0499778e-005	0
statistic Network.rack[0].Server[6].app e_FCT
field count 0
field mean nan
field stddev nan
field min nan
field max nan
field sum 0
field sqrsum 0
bin	-inf	0
bin	0	0
bin	0.033333333333333	0
bin	0.066666666666667	0
bin	0.1	0
bin	0.13333333333333	0
bin	0.16666666666667	0
bin	0.2	0
bin	0.23333333333333	0
bin	0.26666666666667	0
bin	0.3	0
bin	0.33333333333333	0
bin	0.36666666666667	0
bin	0.4	0
bin	0.43333333333333	0
bin	0.46666666666667	0
bin	0.5	0
bin	0.53333333333333	0
bin	0.56666666666667	0
bin	0.6	0
bin	0.63333333333333	0
bin	0.66666666666667	0
bin	0.7	0
bin	0.73333333333333	0
bin	0.76666666666667	0
bin	0.8	0
bin	0.83333333333333	0
bin	0.86666666666667	0
bin	0.9	0
bin	0.93333333333333	0
bin	0.96666666666667	0
bin	1	0
scalar Network.rack[0].Server[6].app hopCount:mean nan
attr interpolationmode none
attr title "hop count of arrived packets, mean"
scalar Network.rack[0].Server[6].app hopCount:max nan
attr interpolationmode none
attr title "hop count of arrived packets, max"
scalar Network.rack[0].Server[6].app endToEndDelay:mean nan
attr interpolationmode none
attr title "end-to-end delay of arrived packets, mean"
attr unit s
scalar Network.rack[0].Server[6].app endToEndDelay:max nan
attr interpolationmode none
attr title "end-to-end delay of arrived packets, max"
attr unit s
scalar Network.rack[0].Server[6].l2Queue rxBytes:count 0
attr interpolationmode none
attr title "received packet byte length, count"
attr unit bytes
scalar Network.rack[0].Server[6].l2Queue rxBytes:sum 0
attr interpolationmode none
attr title "received packet byte length, sum"
attr unit bytes
statistic Network.rack[0].Server[6].l2Queue rxBytes:histogram
field count 0
field mean nan
field stddev nan
field min nan
field max nan
field sum 0
field sqrsum 0
attr interpolationmode none
attr title "received packet byte length, histogram"
attr unit bytes
bin	-inf	0
bin	0	0
bin	1	0
scalar Network.rack[0].Server[6].l2Queue txBytes:count 0
attr interpolationmode none
attr title "transmitting packet byte length, count"
attr unit bytes
scalar Network.rack[0].Server[6].l2Queue txBytes:sum 0
attr interpolationmode none
attr title "transmitting packet byte length, sum"
attr unit bytes
statistic Network.rack[0].Server[6].l2Queue txBytes:histogram
field count 0
field mean nan
field stddev nan
field min nan
field max nan
field sum 0
field sqrsum 0
attr interpolationmode none
attr title "transmitting packet byte length, histogram"
attr unit bytes
bin	-inf	0
bin	0	0
bin	1	0
scalar Network.rack[0].Server[6].l2Queue drop:count 0
attr interpolationmode none
attr title "dropped packet byte length, count"
attr unit bytes
scalar Network.rack[0].Server[6].l2Queue drop:sum 0
attr interpolationmode none
attr title "dropped packet byte length, sum"
attr unit bytes
scalar Network.rack[0].Server[6].l2Queue busy:timeavg nan
attr interpolationmode sample-hold
attr title "server busy state, timeavg"
scalar Network.rack[0].Server[6].l2Queue qlen:timeavg nan
attr interpolationmode sample-hold
attr title "queue length, timeavg"
scalar Network.rack[0].Server[6].l2Queue qlen:max nan
attr interpolationmode sample-hold
attr title "queue length, max"
scalar Network.rack[0].Server[7].app "#average throughout" 987694.6091727
scalar Network.rack[0].Server[7].app #sent 5956
scalar Network.rack[0].Server[7].app #received 150
scalar Network.rack[0].Server[7].app #m_received 3
scalar Network.rack[0].Server[7].app #e_received 147
statistic Network.rack[0].Server[7].app Latency
field count 150
field mean 4.22632788e-006
field stddev 7.5144909224192e-007
field min 2.108702e-006
field max 4.508702e-006
field sum 0.000633949182
field sqrsum 2.7634137873862e-009
bin	-inf	0
bin	0	0
bin	3.0058013333333e-007	0
bin	6.0116026666667e-007	0
bin	9.017404e-007	0
bin	1.2023205333333e-006	0
bin	1.5029006666667e-006	0
bin	1.8034808e-006	0
bin	2.1040609333333e-006	16
bin	2.4046410666667e-006	0
bin	2.7052212e-006	1
bin	3.0058013333333e-006	1
bin	3.3063814666667e-006	0
bin	3.6069616e-006	1
bin	3.9075417333333e-006	1
bin	4.2081218666667e-006	130
bin	4.508702e-006	0
bin	4.8092821333333e-006	0
bin	5.1098622666667e-006	0
bin	5.4104424e-006	0
bin	5.7110225333333e-006	0
bin	6.0116026666667e-006	0
bin	6.3121828e-006	0
bin	6.6127629333333e-006	0
bin	6.9133430666667e-006	0
bin	7.2139232e-006	0
bin	7.5145033333333e-006	0
bin	7.8150834666667e-006	0
bin	8.1156636e-006	0
bin	8.4162437333333e-006	0
bin	8.7168238666667e-006	0
bin	9.017404e-006	0
statistic Network.rack[0].Server[7].app m_Latency
field count 3
field mean 3.189996e-006
field stddev 8e-007
field min 2.389996e-006
field max 3.989996e-006
field sum 9.569988e-006
field sqrsum 3.1808223440048e-011
bin	-inf	0
bin	0	0
bin	2.6599973333333e-007	0
bin	5.3199946666667e-007	0
bin	7.979992e-007	0
bin	1.0639989333333e-006	0
bin	1.3299986666667e-006	0
bin	1.5959984e-006	0
bin	1.8619981333333e-006	0
bin	2.1279978666667e-006	1
bin	2.3939976e-006	0
bin	2.6599973333333e-006	0
bin	2.9259970666667e-006	1
bin	3.1919968e-006	0
bin	3.4579965333333e-006	0
bin	3.7239962666667e-006	0
bin	3.989996e-006	1
bin	4.2559957333333e-006	0
bin	4.5219954666667e-006	0
bin	4.7879952e-006	0
bin	5.0539949333333e-006	0
bin	5.3199946666667e-006	0
bin	5.5859944e-006	0
bin	5.8519941333333e-006	0
bin	6.1179938666667e-006	0
bin	6.3839936e-006	0
bin	6.6499933333333e-006	0
bin	6.9159930666667e-006	0
bin	7.1819928e-006	0
bin	7.4479925333333e-006	0
bin	7.7139922666667e-006	0
bin	7.979992e-006	0
statistic Network.rack[0].Server[7].app e_Latency
field count 147
field mean 4.2474775102041e-006
field stddev 7.3823641938274e-007
field min 2.108702e-006
field max 4.508702e-006
field sum 0.000624379194
field sqrsum 2.7316055639462e-009
bin	-inf	0
bin	0	0
bin	3.0058013333333e-007	0
bin	6.0116026666667e-007	0
bin	9.017404e-007	0
bin	1.2023205333333e-006	0
bin	1.5029006666667e-006	0
bin	1.8034808e-006	0
bin	2.1040609333333e-006	15
bin	2.4046410666667e-006	0
bin	2.7052212e-006	1
bin	3.0058013333333e-006	0
bin	3.3063814666667e-006	0
bin	3.6069616e-006	1
bin	3.9075417333333e-006	0
bin	4.2081218666667e-006	130
bin	4.508702e-006	0
bin	4.8092821333333e-006	0
bin	5.1098622666667e-006	0
bin	5.4104424e-006	0
bin	5.7110225333333e-006	0
bin	6.0116026666667e-006	0
bin	6.3121828e-006	0
bin	6.6127629333333e-006	0
bin	6.9133430666667e-006	0
bin	7.2139232e-006	0
bin	7.5145033333333e-006	0
bin	7.8150834666667e-006	0
bin	8.1156636e-006	0
bin	8.4162437333333e-006	0
bin	8.7168238666667e-006	0
bin	9.017404e-006	0
statistic Network.rack[0].Server[7].app FCT
field count 1
field mean 5.589996e-006
field stddev nan
field min 5.589996e-006
field max 5.589996e-006
field sum 5.589996e-006
field sqrsum 3.1248055280016e-011
bin	-inf	0
bin	0	0
bin	3.726664e-007	0
bin	7.453328e-007	0
bin	1.1179992e-006	0
bin	1.4906656e-006	0
bin	1.863332e-006	0
bin	2.2359984e-006	0
bin	2.6086648e-006	0
bin	2.9813312e-006	0
bin	3.3539976e-006	0
bin	3.726664e-006	0
bin	4.0993304e-006	0
bin	4.4719968e-006	0
bin	4.8446632e-006	0
bin	5.2173296e-006	0
bin	5.589996e-006	1
bin	5.9626624e-006	0
bin	6.3353288e-006	0
bin	6.7079952e-006	0
bin	7.0806616e-006	0
bin	7.453328e-006	0
bin	7.8259944e-006	0
bin	8.1986608e-006	0
bin	8.5713272e-006	0
bin	8.9439936e-006	0
bin	9.31666e-006	0
bin	9.6893264e-006	0
bin	1.00619928e-005	0
bin	1.04346592e-005	0
bin	1.08073256e-005	0
bin	1.1179992e-005	0
statistic Network.rack[0].Server[7].app m_FCT
field count 1
field mean 5.589996e-006
field stddev nan
field min 5.589996e-006
field max 5.589996e-006
field sum 5.589996e-006
field sqrsum 3.1248055280016e-011
bin	-inf	0
bin	0	0
bin	3.726664e-007	0
bin	7.453328e-007	0
bin	1.1179992e-006	0
bin	1.4906656e-006	0
bin	1.863332e-006	0
bin	2.2359984e-006	0
bin	2.6086648e-006	0
bin	2.9813312e-006	0
bin	3.3539976e-006	0
bin	3.726664e-006	0
bin	4.0993304e-006	0
bin	4.4719968e-006	0
bin	4.8446632e-006	0
bin	5.2173296e-006	0
bin	5.589996e-006	1
bin	5.9626624e-006	0
bin	6.3353288e-006	0
bin	6.7079952e-006	0
bin	7.0806616e-006	0
bin	7.453328e-006	0
bin	7.8259944e-006	0
bin	8.1986608e-006	0
bin	8.5713272e-006	0
bin	8.9439936e-006	0
bin	9.31666e-006	0
bin	9.6893264e-006	0
bin	1.00619928e-005	0
bin	1.04346592e-005	0
bin	1.08073256e-005	0
bin	1.1179992e-005	0
statistic Network.rack[0].Server[7].app e_FCT
field count 0
field mean nan
field stddev nan
field min nan
field max nan
field sum 0
field sqrsum 0
bin	-inf	0
bin	0	0
bin	0.033333333333333	0
bin	0.066666666666667	0
bin	0.1	0
bin	0.13333333333333	0
bin	0.16666666666667	0
bin	0.2	0
bin	0.23333333333333	0
bin	0.26666666666667	0
bin	0.3	0
bin	0.33333333333333	0
bin	0.36666666666667	0
bin	0.4	0
bin	0.43333333333333	0
bin	0.46666666666667	0
bin	0.5	0
bin	0.53333333333333	0
bin	0.56666666666667	0
bin	0.6	0
bin	0.63333333333333	0
bin	0.66666666666667	0
bin	0.7	0
bin	0.73333333333333	0
bin	0.76666666666667	0
bin	0.8	0
bin	0.83333333333333	0
bin	0.86666666666667	0
bin	0.9	0
bin	0.93333333333333	0
bin	0.96666666666667	0
bin	1	0
scalar Network.rack[0].Server[7].app hopCount:mean nan
attr interpolationmode none
attr title "hop count of arrived packets, mean"
scalar Network.rack[0].Server[7].app hopCount:max nan
attr interpolationmode none
attr title "hop count of arrived packets, max"
scalar Network.rack[0].Server[7].app endToEndDelay:mean nan
attr interpolationmode none
attr title "end-to-end delay of arrived packets, mean"
attr unit s
scalar Network.rack[0].Server[7].app endToEndDelay:max nan
attr interpolationmode none
attr title "end-to-end delay of arrived packets, max"
attr unit s
scalar Network.rack[0].Server[7].l2Queue rxBytes:count 0
attr interpolationmode none
attr title "received packet byte length, count"
attr unit bytes
scalar Network.rack[0].Server[7].l2Queue rxBytes:sum 0
attr interpolationmode none
attr title "received packet byte length, sum"
attr unit bytes
statistic Network.rack[0].Server[7].l2Queue rxBytes:histogram
field count 0
field mean nan
field stddev nan
field min nan
field max nan
field sum 0
field sqrsum 0
attr interpolationmode none
attr title "received packet byte length, histogram"
attr unit bytes
bin	-inf	0
bin	0	0
bin	1	0
scalar Network.rack[0].Server[7].l2Queue txBytes:count 0
attr interpolationmode none
attr title "transmitting packet byte length, count"
attr unit bytes
scalar Network.rack[0].Server[7].l2Queue txBytes:sum 0
attr interpolationmode none
attr title "transmitting packet byte length, sum"
attr unit bytes
statistic Network.rack[0].Server[7].l2Queue txBytes:histogram
field count 0
field mean nan
field stddev nan
field min nan
field max nan
field sum 0
field sqrsum 0
attr interpolationmode none
attr title "transmitting packet byte length, histogram"
attr unit bytes
bin	-inf	0
bin	0	0
bin	1	0
scalar Network.rack[0].Server[7].l2Queue drop:count 0
attr interpolationmode none
attr title "dropped packet byte length, count"
attr unit bytes
scalar Network.rack[0].Server[7].l2Queue drop:sum 0
attr interpolationmode none
attr title "dropped packet byte length, sum"
attr unit bytes
scalar Network.rack[0].Server[7].l2Queue busy:timeavg nan
attr interpolationmode sample-hold
attr title "server busy state, timeavg"
scalar Network.rack[0].Server[7].l2Queue qlen:timeavg nan
attr interpolationmode sample-hold
attr title "queue length, timeavg"
scalar Network.rack[0].Server[7].l2Queue qlen:max nan
attr interpolationmode sample-hold
attr title "queue length, max"
scalar Network.rack[0].Server[8].app "#average throughout" 164615.76819545
scalar Network.rack[0].Server[8].app #sent 18
scalar Network.rack[0].Server[8].app #received 25
scalar Network.rack[0].Server[8].app #m_received 25
scalar Network.rack[0].Server[8].app #e_received 0
statistic Network.rack[0].Server[8].app Latency
field count 25
field mean 3.74800664e-006
field stddev 4.12662010035e-006
field min 1.68e-006
field max 1.2916566e-005
field sum 9.3700166e-005
field sqrsum 7.5988468719981e-010
bin	-inf	0
bin	0	0
bin	8.611044e-007	16
bin	1.7222088e-006	2
bin	2.5833132e-006	2
bin	3.4444176e-006	1
bin	4.305522e-006	0
bin	5.1666264e-006	0
bin	6.0277308e-006	0
bin	6.8888352e-006	0
bin	7.7499396e-006	0
bin	8.611044e-006	0
bin	9.4721484e-006	0
bin	1.03332528e-005	0
bin	1.11943572e-005	0
bin	1.20554616e-005	0
bin	1.2916566e-005	4
bin	1.37776704e-005	0
bin	1.46387748e-005	0
bin	1.54998792e-005	0
bin	1.63609836e-005	0
bin	1.7222088e-005	0
bin	1.80831924e-005	0
bin	1.89442968e-005	0
bin	1.98054012e-005	0
bin	2.06665056e-005	0
bin	2.152761e-005	0
bin	2.23887144e-005	0
bin	2.32498188e-005	0
bin	2.41109232e-005	0
bin	2.49720276e-005	0
bin	2.5833132e-005	0
statistic Network.rack[0].Server[8].app m_Latency
field count 25
field mean 3.74800664e-006
field stddev 4.12662010035e-006
field min 1.68e-006
field max 1.2916566e-005
field sum 9.3700166e-005
field sqrsum 7.5988468719981e-010
bin	-inf	0
bin	0	0
bin	8.611044e-007	16
bin	1.7222088e-006	2
bin	2.5833132e-006	2
bin	3.4444176e-006	1
bin	4.305522e-006	0
bin	5.1666264e-006	0
bin	6.0277308e-006	0
bin	6.8888352e-006	0
bin	7.7499396e-006	0
bin	8.611044e-006	0
bin	9.4721484e-006	0
bin	1.03332528e-005	0
bin	1.11943572e-005	0
bin	1.20554616e-005	0
bin	1.2916566e-005	4
bin	1.37776704e-005	0
bin	1.46387748e-005	0
bin	1.54998792e-005	0
bin	1.63609836e-005	0
bin	1.7222088e-005	0
bin	1.80831924e-005	0
bin	1.89442968e-005	0
bin	1.98054012e-005	0
bin	2.06665056e-005	0
bin	2.152761e-005	0
bin	2.23887144e-005	0
bin	2.32498188e-005	0
bin	2.41109232e-005	0
bin	2.49720276e-005	0
bin	2.5833132e-005	0
statistic Network.rack[0].Server[8].app e_Latency
field count 0
field mean nan
field stddev nan
field min nan
field max nan
field sum 0
field sqrsum 0
bin	-inf	0
bin	0	0
bin	0.033333333333333	0
bin	0.066666666666667	0
bin	0.1	0
bin	0.13333333333333	0
bin	0.16666666666667	0
bin	0.2	0
bin	0.23333333333333	0
bin	0.26666666666667	0
bin	0.3	0
bin	0.33333333333333	0
bin	0.36666666666667	0
bin	0.4	0
bin	0.43333333333333	0
bin	0.46666666666667	0
bin	0.5	0
bin	0.53333333333333	0
bin	0.56666666666667	0
bin	0.6	0
bin	0.63333333333333	0
bin	0.66666666666667	0
bin	0.7	0
bin	0.73333333333333	0
bin	0.76666666666667	0
bin	0.8	0
bin	0.83333333333333	0
bin	0.86666666666667	0
bin	0.9	0
bin	0.93333333333333	0
bin	0.96666666666667	0
bin	1	0
statistic Network.rack[0].Server[8].app FCT
field count 8
field mean 5.267661125e-006
field stddev 4.1769229996817e-006
field min 2.48e-006
field max 1.5316566e-005
field sum 4.2141289e-005
field sqrsum 3.4411283003958e-010
bin	-inf	0
bin	0	0
bin	1.0211044e-006	0
bin	2.0422088e-006	1
bin	3.0633132e-006	3
bin	4.0844176e-006	2
bin	5.105522e-006	1
bin	6.1266264e-006	0
bin	7.1477308e-006	0
bin	8.1688352e-006	0
bin	9.1899396e-006	0
bin	1.0211044e-005	0
bin	1.12321484e-005	0
bin	1.22532528e-005	0
bin	1.32743572e-005	0
bin	1.42954616e-005	0
bin	1.5316566e-005	1
bin	1.63376704e-005	0
bin	1.73587748e-005	0
bin	1.83798792e-005	0
bin	1.94009836e-005	0
bin	2.0422088e-005	0
bin	2.14431924e-005	0
bin	2.24642968e-005	0
bin	2.34854012e-005	0
bin	2.45065056e-005	0
bin	2.552761e-005	0
bin	2.65487144e-005	0
bin	2.75698188e-005	0
bin	2.85909232e-005	0
bin	2.96120276e-005	0
bin	3.0633132e-005	0
statistic Network.rack[0].Server[8].app m_FCT
field count 8
field mean 5.267661125e-006
field stddev 4.1769229996817e-006
field min 2.48e-006
field max 1.5316566e-005
field sum 4.2141289e-005
field sqrsum 3.4411283003958e-010
bin	-inf	0
bin	0	0
bin	1.0211044e-006	0
bin	2.0422088e-006	1
bin	3.0633132e-006	3
bin	4.0844176e-006	2
bin	5.105522e-006	1
bin	6.1266264e-006	0
bin	7.1477308e-006	0
bin	8.1688352e-006	0
bin	9.1899396e-006	0
bin	1.0211044e-005	0
bin	1.12321484e-005	0
bin	1.22532528e-005	0
bin	1.32743572e-005	0
bin	1.42954616e-005	0
bin	1.5316566e-005	1
bin	1.63376704e-005	0
bin	1.73587748e-005	0
bin	1.83798792e-005	0
bin	1.94009836e-005	0
bin	2.0422088e-005	0
bin	2.14431924e-005	0
bin	2.24642968e-005	0
bin	2.34854012e-005	0
bin	2.45065056e-005	0
bin	2.552761e-005	0
bin	2.65487144e-005	0
bin	2.75698188e-005	0
bin	2.85909232e-005	0
bin	2.96120276e-005	0
bin	3.0633132e-005	0
statistic Network.rack[0].Server[8].app e_FCT
field count 0
field mean nan
field stddev nan
field min nan
field max nan
field sum 0
field sqrsum 0
bin	-inf	0
bin	0	0
bin	0.033333333333333	0
bin	0.066666666666667	0
bin	0.1	0
bin	0.13333333333333	0
bin	0.16666666666667	0
bin	0.2	0
bin	0.23333333333333	0
bin	0.26666666666667	0
bin	0.3	0
bin	0.33333333333333	0
bin	0.36666666666667	0
bin	0.4	0
bin	0.43333333333333	0
bin	0.46666666666667	0
bin	0.5	0
bin	0.53333333333333	0
bin	0.56666666666667	0
bin	0.6	0
bin	0.63333333333333	0
bin	0.66666666666667	0
bin	0.7	0
bin	0.73333333333333	0
bin	0.76666666666667	0
bin	0.8	0
bin	0.83333333333333	0
bin	0.86666666666667	0
bin	0.9	0
bin	0.93333333333333	0
bin	0.96666666666667	0
bin	1	0
scalar Network.rack[0].Server[8].app hopCount:mean nan
attr interpolationmode none
attr title "hop count of arrived packets, mean"
scalar Network.rack[0].Server[8].app hopCount:max nan
attr interpolationmode none
attr title "hop count of arrived packets, max"
scalar Network.rack[0].Server[8].app endToEndDelay:mean nan
attr interpolationmode none
attr title "end-to-end delay of arrived packets, mean"
attr unit s
scalar Network.rack[0].Server[8].app endToEndDelay:max nan
attr interpolationmode none
attr title "end-to-end delay of arrived packets, max"
attr unit s
scalar Network.rack[0].Server[8].l2Queue rxBytes:count 0
attr interpolationmode none
attr title "received packet byte length, count"
attr unit bytes
scalar Network.rack[0].Server[8].l2Queue rxBytes:sum 0
attr interpolationmode none
attr title "received packet byte length, sum"
attr unit bytes
statistic Network.rack[0].Server[8].l2Queue rxBytes:histogram
field count 0
field mean nan
field stddev nan
field min nan
field max nan
field sum 0
field sqrsum 0
attr interpolationmode none
attr title "received packet byte length, histogram"
attr unit bytes
bin	-inf	0
bin	0	0
bin	1	0
scalar Network.rack[0].Server[8].l2Queue txBytes:count 0
attr interpolationmode none
attr title "transmitting packet byte length, count"
attr unit bytes
scalar Network.rack[0].Server[8].l2Queue txBytes:sum 0
attr interpolationmode none
attr title "transmitting packet byte length, sum"
attr unit bytes
statistic Network.rack[0].Server[8].l2Queue txBytes:histogram
field count 0
field mean nan
field stddev nan
field min nan
field max nan
field sum 0
field sqrsum 0
attr interpolationmode none
attr title "transmitting packet byte length, histogram"
attr unit bytes
bin	-inf	0
bin	0	0
bin	1	0
scalar Network.rack[0].Server[8].l2Queue drop:count 0
attr interpolationmode none
attr title "dropped packet byte length, count"
attr unit bytes
scalar Network.rack[0].Server[8].l2Queue drop:sum 0
attr interpolationmode none
attr title "dropped packet byte length, sum"
attr unit bytes
scalar Network.rack[0].Server[8].l2Queue busy:timeavg nan
attr interpolationmode sample-hold
attr title "server busy state, timeavg"
scalar Network.rack[0].Server[8].l2Queue qlen:timeavg nan
attr interpolationmode sample-hold
attr title "queue length, timeavg"
scalar Network.rack[0].Server[8].l2Queue qlen:max nan
attr interpolationmode sample-hold
attr title "queue length, max"
scalar Network.rack[0].Server[9].app "#average throughout" 579447.50404798
scalar Network.rack[0].Server[9].app #sent 3036
scalar Network.rack[0].Server[9].app #received 88
scalar Network.rack[0].Server[9].app #m_received 6
scalar Network.rack[0].Server[9].app #e_received 82
statistic Network.rack[0].Server[9].app Latency
field count 88
field mean 3.0700537727273e-006
field stddev 3.2460787676032e-006
field min 1.68e-006
field max 1.9244975e-005
field sum 0.000270164732
field sqrsum 1.7461416355316e-009
bin	-inf	0
bin	0	0
bin	1.2829983333333e-006	57
bin	2.5659966666667e-006	3
bin	3.848995e-006	25
bin	5.1319933333333e-006	0
bin	6.4149916666667e-006	0
bin	7.69799e-006	0
bin	8.9809883333333e-006	0
bin	1.0263986666667e-005	0
bin	1.1546985e-005	0
bin	1.2829983333333e-005	0
bin	1.4112981666667e-005	0
bin	1.539598e-005	0
bin	1.6678978333333e-005	0
bin	1.7961976666667e-005	0
bin	1.9244975e-005	3
bin	2.0527973333333e-005	0
bin	2.1810971666667e-005	0
bin	2.309397e-005	0
bin	2.4376968333333e-005	0
bin	2.5659966666667e-005	0
bin	2.6942965e-005	0
bin	2.8225963333333e-005	0
bin	2.9508961666667e-005	0
bin	3.079196e-005	0
bin	3.2074958333333e-005	0
bin	3.3357956666667e-005	0
bin	3.4640955e-005	0
bin	3.5923953333333e-005	0
bin	3.7206951666667e-005	0
bin	3.848995e-005	0
statistic Network.rack[0].Server[9].app m_Latency
field count 6
field mean 1.111607e-005
field stddev 8.9191320092725e-006
field min 2.187165e-006
field max 1.9244975e-005
field sum 6.669642e-005
field sqrsum 1.1391566524636e-009
bin	-inf	0
bin	0	0
bin	1.2829983333333e-006	1
bin	2.5659966666667e-006	2
bin	3.848995e-006	0
bin	5.1319933333333e-006	0
bin	6.4149916666667e-006	0
bin	7.69799e-006	0
bin	8.9809883333333e-006	0
bin	1.0263986666667e-005	0
bin	1.1546985e-005	0
bin	1.2829983333333e-005	0
bin	1.4112981666667e-005	0
bin	1.539598e-005	0
bin	1.6678978333333e-005	0
bin	1.7961976666667e-005	0
bin	1.9244975e-005	3
bin	2.0527973333333e-005	0
bin	2.1810971666667e-005	0
bin	2.309397e-005	0
bin	2.4376968333333e-005	0
bin	2.5659966666667e-005	0
bin	2.6942965e-005	0
bin	2.8225963333333e-005	0
bin	2.9508961666667e-005	0
bin	3.079196e-005	0
bin	3.2074958333333e-005	0
bin	3.3357956666667e-005	0
bin	3.4640955e-005	0
bin	3.5923953333333e-005	0
bin	3.7206951666667e-005	0
bin	3.848995e-005	0
statistic Network.rack[0].Server[9].app e_Latency
field count 82
field mean 2.4813208780488e-006
field stddev 1.1227986005056e-006
field min 1.68e-006
field max 4.139077e-006
field sum 0.000203468312
field sqrsum 6.0698498306802e-010
bin	-inf	0
bin	0	0
bin	2.7593846666667e-007	0
bin	5.5187693333333e-007	0
bin	8.278154e-007	0
bin	1.1037538666667e-006	0
bin	1.3796923333333e-006	0
bin	1.6556308e-006	55
bin	1.9315692666667e-006	0
bin	2.2075077333333e-006	0
bin	2.4834462e-006	1
bin	2.7593846666667e-006	0
bin	3.0353231333333e-006	0
bin	3.3112616e-006	1
bin	3.5872000666667e-006	0
bin	3.8631385333333e-006	0
bin	4.139077e-006	25
bin	4.4150154666667e-006	0
bin	4.6909539333333e-006	0
bin	4.9668924e-006	0
bin	5.2428308666667e-006	0
bin	5.5187693333333e-006	0
bin	5.7947078e-006	0
bin	6.0706462666667e-006	0
bin	6.3465847333333e-006	0
bin	6.6225232e-006	0
bin	6.8984616666667e-006	0
bin	7.1744001333333e-006	0
bin	7.4503386e-006	0
bin	7.7262770666667e-006	0
bin	8.0022155333333e-006	0
bin	8.278154e-006	0
statistic Network.rack[0].Server[9].app FCT
field count 2
field mean 1.311607e-005
field stddev 1.0930322273293e-005
field min 5.387165e-006
field max 2.0844975e-005
field sum 2.623214e-005
field sqrsum 4.6353452948785e-010
bin	-inf	0
bin	0	0
bin	1.389665e-006	0
bin	2.77933e-006	0
bin	4.168995e-006	1
bin	5.55866e-006	0
bin	6.948325e-006	0
bin	8.33799e-006	0
bin	9.727655e-006	0
bin	1.111732e-005	0
bin	1.2506985e-005	0
bin	1.389665e-005	0
bin	1.5286315e-005	0
bin	1.667598e-005	0
bin	1.8065645e-005	0
bin	1.945531e-005	0
bin	2.0844975e-005	1
bin	2.223464e-005	0
bin	2.3624305e-005	0
bin	2.501397e-005	0
bin	2.6403635e-005	0
bin	2.77933e-005	0
bin	2.9182965e-005	0
bin	3.057263e-005	0
bin	3.1962295e-005	0
bin	3.335196e-005	0
bin	3.4741625e-005	0
bin	3.613129e-005	0
bin	3.7520955e-005	0
bin	3.891062e-005	0
bin	4.0300285e-005	0
bin	4.168995e-005	0
statistic Network.rack[0].Server[9].app m_FCT
field count 2
field mean 1.311607e-005
field stddev 1.0930322273293e-005
field min 5.387165e-006
field max 2.0844975e-005
field sum 2.623214e-005
field sqrsum 4.6353452948785e-010
bin	-inf	0
bin	0	0
bin	1.389665e-006	0
bin	2.77933e-006	0
bin	4.168995e-006	1
bin	5.55866e-006	0
bin	6.948325e-006	0
bin	8.33799e-006	0
bin	9.727655e-006	0
bin	1.111732e-005	0
bin	1.2506985e-005	0
bin	1.389665e-005	0
bin	1.5286315e-005	0
bin	1.667598e-005	0
bin	1.8065645e-005	0
bin	1.945531e-005	0
bin	2.0844975e-005	1
bin	2.223464e-005	0
bin	2.3624305e-005	0
bin	2.501397e-005	0
bin	2.6403635e-005	0
bin	2.77933e-005	0
bin	2.9182965e-005	0
bin	3.057263e-005	0
bin	3.1962295e-005	0
bin	3.335196e-005	0
bin	3.4741625e-005	0
bin	3.613129e-005	0
bin	3.7520955e-005	0
bin	3.891062e-005	0
bin	4.0300285e-005	0
bin	4.168995e-005	0
statistic Network.rack[0].Server[9].app e_FCT
field count 0
field mean nan
field stddev nan
field min nan
field max nan
field sum 0
field sqrsum 0
bin	-inf	0
bin	0	0
bin	0.033333333333333	0
bin	0.066666666666667	0
bin	0.1	0
bin	0.13333333333333	0
bin	0.16666666666667	0
bin	0.2	0
bin	0.23333333333333	0
bin	0.26666666666667	0
bin	0.3	0
bin	0.33333333333333	0
bin	0.36666666666667	0
bin	0.4	0
bin	0.43333333333333	0
bin	0.46666666666667	0
bin	0.5	0
bin	0.53333333333333	0
bin	0.56666666666667	0
bin	0.6	0
bin	0.63333333333333	0
bin	0.66666666666667	0
bin	0.7	0
bin	0.73333333333333	0
bin	0.76666666666667	0
bin	0.8	0
bin	0.83333333333333	0
bin	0.86666666666667	0
bin	0.9	0
bin	0.93333333333333	0
bin	0.96666666666667	0
bin	1	0
scalar Network.rack[0].Server[9].app hopCount:mean nan
attr interpolationmode none
attr title "hop count of arrived packets, mean"
scalar Network.rack[0].Server[9].app hopCount:max nan
attr interpolationmode none
attr title "hop count of arrived packets, max"
scalar Network.rack[0].Server[9].app endToEndDelay:mean nan
attr interpolationmode none
attr title "end-to-end delay of arrived packets, mean"
attr unit s
scalar Network.rack[0].Server[9].app endToEndDelay:max nan
attr interpolationmode none
attr title "end-to-end delay of arrived packets, max"
attr unit s
scalar Network.rack[0].Server[9].l2Queue rxBytes:count 0
attr interpolationmode none
attr title "received packet byte length, count"
attr unit bytes
scalar Network.rack[0].Server[9].l2Queue rxBytes:sum 0
attr interpolationmode none
attr title "received packet byte length, sum"
attr unit bytes
statistic Network.rack[0].Server[9].l2Queue rxBytes:histogram
field count 0
field mean nan
field stddev nan
field min nan
field max nan
field sum 0
field sqrsum 0
attr interpolationmode none
attr title "received packet byte length, histogram"
attr unit bytes
bin	-inf	0
bin	0	0
bin	1	0
scalar Network.rack[0].Server[9].l2Queue txBytes:count 0
attr interpolationmode none
attr title "transmitting packet byte length, count"
attr unit bytes
scalar Network.rack[0].Server[9].l2Queue txBytes:sum 0
attr interpolationmode none
attr title "transmitting packet byte length, sum"
attr unit bytes
statistic Network.rack[0].Server[9].l2Queue txBytes:histogram
field count 0
field mean nan
field stddev nan
field min nan
field max nan
field sum 0
field sqrsum 0
attr interpolationmode none
attr title "transmitting packet byte length, histogram"
attr unit bytes
bin	-inf	0
bin	0	0
bin	1	0
scalar Network.rack[0].Server[9].l2Queue drop:count 0
attr interpolationmode none
attr title "dropped packet byte length, count"
attr unit bytes
scalar Network.rack[0].Server[9].l2Queue drop:sum 0
attr interpolationmode none
attr title "dropped packet byte length, sum"
attr unit bytes
scalar Network.rack[0].Server[9].l2Queue busy:timeavg nan
attr interpolationmode sample-hold
attr title "server busy state, timeavg"
scalar Network.rack[0].Server[9].l2Queue qlen:timeavg nan
attr interpolationmode sample-hold
attr title "queue length, timeavg"
scalar Network.rack[0].Server[9].l2Queue qlen:max nan
[...]
field count 0
field mean nan
field stddev nan
field min nan
field max nan
field sum 0
field sqrsum 0
attr interpolationmode none
attr title "transmitting packet byte length, histogram"
attr unit bytes
bin	-inf	0
bin	0	0
bin	1	0
scalar Network.rack[2].Server[7].l2Queue drop:count 0
attr interpolationmode none
attr title "dropped packet byte length, count"
attr unit bytes
scalar Network.rack[2].Server[7].l2Queue drop:sum 0
attr interpolationmode none
attr title "dropped packet byte length, sum"
attr unit bytes
scalar Network.rack[2].Server[7].l2Queue busy:timeavg nan
attr interpolationmode sample-hold
attr title "server busy state, timeavg"
scalar Network.rack[2].Server[7].l2Queue qlen:timeavg nan
attr interpolationmode sample-hold
attr title "queue length, timeavg"
scalar Network.rack[2].Server[7].l2Queue qlen:max nan
attr interpolationmode sample-hold
attr title "queue length, max"
scalar Network.rack[2].Server[8].app "#average throughout" 52677.045822544
scalar Network.rack[2].Server[8].app #sent 3040
scalar Network.rack[2].Server[8].app #received 8
scalar Network.rack[2].Server[8].app #m_received 8
scalar Network.rack[2].Server[8].app #e_received 0
statistic Network.rack[2].Server[8].app Latency
field count 8
field mean 1.94375275e-006
field stddev 4.8837519464057e-007
field min 1.68e-006
field max 2.735011e-006
field sum 1.5550022e-005
field sqrsum 3.1894970340242e-011
bin	-inf	0
bin	0	0
bin	1.8233406666667e-007	0
bin	3.6466813333333e-007	0
bin	5.470022e-007	0
bin	7.2933626666667e-007	0
bin	9.1167033333333e-007	0
bin	1.0940044e-006	0
bin	1.2763384666667e-006	0
bin	1.4586725333333e-006	0
bin	1.6410066e-006	6
bin	1.8233406666667e-006	0
bin	2.0056747333333e-006	0
bin	2.1880088e-006	0
bin	2.3703428666667e-006	0
bin	2.5526769333333e-006	0
bin	2.735011e-006	2
bin	2.9173450666667e-006	0
bin	3.0996791333333e-006	0
bin	3.2820132e-006	0
bin	3.4643472666667e-006	0
bin	3.6466813333333e-006	0
bin	3.8290154e-006	0
bin	4.0113494666667e-006	0
bin	4.1936835333333e-006	0
bin	4.3760176e-006	0
bin	4.5583516666667e-006	0
bin	4.7406857333333e-006	0
bin	4.9230198e-006	0
bin	5.1053538666667e-006	0
bin	5.2876879333333e-006	0
bin	5.470022e-006	0
statistic Network.rack[2].Server[8].app m_Latency
field count 8
field mean 1.94375275e-006
field stddev 4.8837519464057e-007
field min 1.68e-006
field max 2.735011e-006
field sum 1.5550022e-005
field sqrsum 3.1894970340242e-011
bin	-inf	0
bin	0	0
bin	1.8233406666667e-007	0
bin	3.6466813333333e-007	0
bin	5.470022e-007	0
bin	7.2933626666667e-007	0
bin	9.1167033333333e-007	0
bin	1.0940044e-006	0
bin	1.2763384666667e-006	0
bin	1.4586725333333e-006	0
bin	1.6410066e-006	6
bin	1.8233406666667e-006	0
bin	2.0056747333333e-006	0
bin	2.1880088e-006	0
bin	2.3703428666667e-006	0
bin	2.5526769333333e-006	0
bin	2.735011e-006	2
bin	2.9173450666667e-006	0
bin	3.0996791333333e-006	0
bin	3.2820132e-006	0
bin	3.4643472666667e-006	0
bin	3.6466813333333e-006	0
bin	3.8290154e-006	0
bin	4.0113494666667e-006	0
bin	4.1936835333333e-006	0
bin	4.3760176e-006	0
bin	4.5583516666667e-006	0
bin	4.7406857333333e-006	0
bin	4.9230198e-006	0
bin	5.1053538666667e-006	0
bin	5.2876879333333e-006	0
bin	5.470022e-006	0
statistic Network.rack[2].Server[8].app e_Latency
field count 0
field mean nan
field stddev nan
field min nan
field max nan
field sum 0
field sqrsum 0
bin	-inf	0
bin	0	0
bin	0.033333333333333	0
bin	0.066666666666667	0
bin	0.1	0
bin	0.13333333333333	0
bin	0.16666666666667	0
bin	0.2	0
bin	0.23333333333333	0
bin	0.26666666666667	0
bin	0.3	0
bin	0.33333333333333	0
bin	0.36666666666667	0
bin	0.4	0
bin	0.43333333333333	0
bin	0.46666666666667	0
bin	0.5	0
bin	0.53333333333333	0
bin	0.56666666666667	0
bin	0.6	0
bin	0.63333333333333	0
bin	0.66666666666667	0
bin	0.7	0
bin	0.73333333333333	0
bin	0.76666666666667	0
bin	0.8	0
bin	0.83333333333333	0
bin	0.86666666666667	0
bin	0.9	0
bin	0.93333333333333	0
bin	0.96666666666667	0
bin	1	0
statistic Network.rack[2].Server[8].app FCT
field count 3
field mean 3.3650036666667e-006
field stddev 1.472306694963e-007
field min 3.28e-006
field max 3.535011e-006
field sum 1.0095011e-005
field sqrsum 3.4013102770121e-011
bin	-inf	0
bin	0	0
bin	2.356674e-007	0
bin	4.713348e-007	0
bin	7.070022e-007	0
bin	9.426696e-007	0
bin	1.178337e-006	0
bin	1.4140044e-006	0
bin	1.6496718e-006	0
bin	1.8853392e-006	0
bin	2.1210066e-006	0
bin	2.356674e-006	0
bin	2.5923414e-006	0
bin	2.8280088e-006	0
bin	3.0636762e-006	2
bin	3.2993436e-006	0
bin	3.535011e-006	1
bin	3.7706784e-006	0
bin	4.0063458e-006	0
bin	4.2420132e-006	0
bin	4.4776806e-006	0
bin	4.713348e-006	0
bin	4.9490154e-006	0
bin	5.1846828e-006	0
bin	5.4203502e-006	0
bin	5.6560176e-006	0
bin	5.891685e-006	0
bin	6.1273524e-006	0
bin	6.3630198e-006	0
bin	6.5986872e-006	0
bin	6.8343546e-006	0
bin	7.070022e-006	0
statistic Network.rack[2].Server[8].app m_FCT
field count 3
field mean 3.3650036666667e-006
field stddev 1.472306694963e-007
field min 3.28e-006
field max 3.535011e-006
field sum 1.0095011e-005
field sqrsum 3.4013102770121e-011
bin	-inf	0
bin	0	0
bin	2.356674e-007	0
bin	4.713348e-007	0
bin	7.070022e-007	0
bin	9.426696e-007	0
bin	1.178337e-006	0
bin	1.4140044e-006	0
bin	1.6496718e-006	0
bin	1.8853392e-006	0
bin	2.1210066e-006	0
bin	2.356674e-006	0
bin	2.5923414e-006	0
bin	2.8280088e-006	0
bin	3.0636762e-006	2
bin	3.2993436e-006	0
bin	3.535011e-006	1
bin	3.7706784e-006	0
bin	4.0063458e-006	0
bin	4.2420132e-006	0
bin	4.4776806e-006	0
bin	4.713348e-006	0
bin	4.9490154e-006	0
bin	5.1846828e-006	0
bin	5.4203502e-006	0
bin	5.6560176e-006	0
bin	5.891685e-006	0
bin	6.1273524e-006	0
bin	6.3630198e-006	0
bin	6.5986872e-006	0
bin	6.8343546e-006	0
bin	7.070022e-006	0
statistic Network.rack[2].Server[8].app e_FCT
field count 0
field mean nan
field stddev nan
field min nan
field max nan
field sum 0
field sqrsum 0
bin	-inf	0
bin	0	0
bin	0.033333333333333	0
bin	0.066666666666667	0
bin	0.1	0
bin	0.13333333333333	0
bin	0.16666666666667	0
bin	0.2	0
bin	0.23333333333333	0
bin	0.26666666666667	0
bin	0.3	0
bin	0.33333333333333	0
bin	0.36666666666667	0
bin	0.4	0
bin	0.43333333333333	0
bin	0.46666666666667	0
bin	0.5	0
bin	0.53333333333333	0
bin	0.56666666666667	0
bin	0.6	0
bin	0.63333333333333	0
bin	0.66666666666667	0
bin	0.7	0
bin	0.73333333333333	0
bin	0.76666666666667	0
bin	0.8	0
bin	0.83333333333333	0
bin	0.86666666666667	0
bin	0.9	0
bin	0.93333333333333	0
bin	0.96666666666667	0
bin	1	0
scalar Network.rack[2].Server[8].app hopCount:mean nan
attr interpolationmode none
attr title "hop count of arrived packets, mean"
scalar Network.rack[2].Server[8].app hopCount:max nan
attr interpolationmode none
attr title "hop count of arrived packets, max"
scalar Network.rack[2].Server[8].app endToEndDelay:mean nan
attr interpolationmode none
attr title "end-to-end delay of arrived packets, mean"
attr unit s
scalar Network.rack[2].Server[8].app endToEndDelay:max nan
attr interpolationmode none
attr title "end-to-end delay of arrived packets, max"
attr unit s
scalar Network.rack[2].Server[8].l2Queue rxBytes:count 0
attr interpolationmode none
attr title "received packet byte length, count"
attr unit bytes
scalar Network.rack[2].Server[8].l2Queue rxBytes:sum 0
attr interpolationmode none
attr title "received packet byte length, sum"
attr unit bytes
statistic Network.rack[2].Server[8].l2Queue rxBytes:histogram
field count 0
field mean nan
field stddev nan
field min nan
field max nan
field sum 0
field sqrsum 0
attr interpolationmode none
attr title "received packet byte length, histogram"
attr unit bytes
bin	-inf	0
bin	0	0
bin	1	0
scalar Network.rack[2].Server[8].l2Queue txBytes:count 0
attr interpolationmode none
attr title "transmitting packet byte length, count"
attr unit bytes
scalar Network.rack[2].Server[8].l2Queue txBytes:sum 0
attr interpolationmode none
attr title "transmitting packet byte length, sum"
attr unit bytes
statistic Network.rack[2].Server[8].l2Queue txBytes:histogram
field count 0
field mean nan
field stddev nan
field min nan
field max nan
field sum 0
field sqrsum 0
attr interpolationmode none
attr title "transmitting packet byte length, histogram"
attr unit bytes
bin	-inf	0
bin	0	0
bin	1	0
scalar Network.rack[2].Server[8].l2Queue drop:count 0
attr interpolationmode none
attr title "dropped packet byte length, count"
attr unit bytes
scalar Network.rack[2].Server[8].l2Queue drop:sum 0
attr interpolationmode none
attr title "dropped packet byte length, sum"
attr unit bytes
scalar Network.rack[2].Server[8].l2Queue busy:timeavg nan
attr interpolationmode sample-hold
attr title "server busy state, timeavg"
scalar Network.rack[2].Server[8].l2Queue qlen:timeavg nan
attr interpolationmode sample-hold
attr title "queue length, timeavg"
scalar Network.rack[2].Server[8].l2Queue qlen:max nan
attr interpolationmode sample-hold
attr title "queue length, max"
scalar Network.rack[2].Server[9].app "#average throughout" 59261.676550362
scalar Network.rack[2].Server[9].app #sent 8
scalar Network.rack[2].Server[9].app #received 9
scalar Network.rack[2].Server[9].app #m_received 9
scalar Network.rack[2].Server[9].app #e_received 0
statistic Network.rack[2].Server[9].app Latency
field count 9
field mean 1.2956122111111e-005
field stddev 1.3324095293675e-005
field min 1.68e-006
field max 2.7000925e-005
field sum 0.000116605099
field sqrsum 2.9310020245816e-009
bin	-inf	0
bin	0	5
bin	1.8000616666667e-006	0
bin	3.6001233333333e-006	0
bin	5.400185e-006	0
bin	7.2002466666667e-006	0
bin	9.0003083333333e-006	0
bin	1.080037e-005	0
bin	1.2600431666667e-005	0
bin	1.4400493333333e-005	0
bin	1.6200555e-005	0
bin	1.8000616666667e-005	0
bin	1.9800678333333e-005	0
bin	2.160074e-005	0
bin	2.3400801666667e-005	0
bin	2.5200863333333e-005	0
bin	2.7000925e-005	4
bin	2.8800986666667e-005	0
bin	3.0601048333333e-005	0
bin	3.240111e-005	0
bin	3.4201171666667e-005	0
bin	3.6001233333333e-005	0
bin	3.7801295e-005	0
bin	3.9601356666667e-005	0
bin	4.1401418333333e-005	0
bin	4.320148e-005	0
bin	4.5001541666667e-005	0
bin	4.6801603333333e-005	0
bin	4.8601665e-005	0
bin	5.0401726666667e-005	0
bin	5.2201788333333e-005	0
bin	5.400185e-005	0
statistic Network.rack[2].Server[9].app m_Latency
field count 9
field mean 1.2956122111111e-005
field stddev 1.3324095293675e-005
field min 1.68e-006
field max 2.7000925e-005
field sum 0.000116605099
field sqrsum 2.9310020245816e-009
bin	-inf	0
bin	0	5
bin	1.8000616666667e-006	0
bin	3.6001233333333e-006	0
bin	5.400185e-006	0
bin	7.2002466666667e-006	0
bin	9.0003083333333e-006	0
bin	1.080037e-005	0
bin	1.2600431666667e-005	0
bin	1.4400493333333e-005	0
bin	1.6200555e-005	0
bin	1.8000616666667e-005	0
bin	1.9800678333333e-005	0
bin	2.160074e-005	0
bin	2.3400801666667e-005	0
bin	2.5200863333333e-005	0
bin	2.7000925e-005	4
bin	2.8800986666667e-005	0
bin	3.0601048333333e-005	0
bin	3.240111e-005	0
bin	3.4201171666667e-005	0
bin	3.6001233333333e-005	0
bin	3.7801295e-005	0
bin	3.9601356666667e-005	0
bin	4.1401418333333e-005	0
bin	4.320148e-005	0
bin	4.5001541666667e-005	0
bin	4.6801603333333e-005	0
bin	4.8601665e-005	0
bin	5.0401726666667e-005	0
bin	5.2201788333333e-005	0
bin	5.400185e-005	0
statistic Network.rack[2].Server[9].app e_Latency
field count 0
field mean nan
field stddev nan
field min nan
field max nan
field sum 0
field sqrsum 0
bin	-inf	0
bin	0	0
bin	0.033333333333333	0
bin	0.066666666666667	0
bin	0.1	0
bin	0.13333333333333	0
bin	0.16666666666667	0
bin	0.2	0
bin	0.23333333333333	0
bin	0.26666666666667	0
bin	0.3	0
bin	0.33333333333333	0
bin	0.36666666666667	0
bin	0.4	0
bin	0.43333333333333	0
bin	0.46666666666667	0
bin	0.5	0
bin	0.53333333333333	0
bin	0.56666666666667	0
bin	0.6	0
bin	0.63333333333333	0
bin	0.66666666666667	0
bin	0.7	0
bin	0.73333333333333	0
bin	0.76666666666667	0
bin	0.8	0
bin	0.83333333333333	0
bin	0.86666666666667	0
bin	0.9	0
bin	0.93333333333333	0
bin	0.96666666666667	0
bin	1	0
statistic Network.rack[2].Server[9].app FCT
field count 3
field mean 1.1742686e-005
field stddev 1.5298628479238e-005
field min 2.48e-006
field max 2.9400925e-005
field sum 3.5228058e-005
field sqrsum 8.8176809017531e-010
bin	-inf	0
bin	0	0
bin	1.9600616666667e-006	2
bin	3.9201233333333e-006	0
bin	5.880185e-006	0
bin	7.8402466666667e-006	0
bin	9.8003083333333e-006	0
bin	1.176037e-005	0
bin	1.3720431666667e-005	0
bin	1.5680493333333e-005	0
bin	1.7640555e-005	0
bin	1.9600616666667e-005	0
bin	2.1560678333333e-005	0
bin	2.352074e-005	0
bin	2.5480801666667e-005	0
bin	2.7440863333333e-005	0
bin	2.9400925e-005	1
bin	3.1360986666667e-005	0
bin	3.3321048333333e-005	0
bin	3.528111e-005	0
bin	3.7241171666667e-005	0
bin	3.9201233333333e-005	0
bin	4.1161295e-005	0
bin	4.3121356666667e-005	0
bin	4.5081418333333e-005	0
bin	4.704148e-005	0
bin	4.9001541666667e-005	0
bin	5.0961603333333e-005	0
bin	5.2921665e-005	0
bin	5.4881726666667e-005	0
bin	5.6841788333333e-005	0
bin	5.880185e-005	0
statistic Network.rack[2].Server[9].app m_FCT
field count 3
field mean 1.1742686e-005
field stddev 1.5298628479238e-005
field min 2.48e-006
field max 2.9400925e-005
field sum 3.5228058e-005
field sqrsum 8.8176809017531e-010
bin	-inf	0
bin	0	0
bin	1.9600616666667e-006	2
bin	3.9201233333333e-006	0
bin	5.880185e-006	0
bin	7.8402466666667e-006	0
bin	9.8003083333333e-006	0
bin	1.176037e-005	0
bin	1.3720431666667e-005	0
bin	1.5680493333333e-005	0
bin	1.7640555e-005	0
bin	1.9600616666667e-005	0
bin	2.1560678333333e-005	0
bin	2.352074e-005	0
bin	2.5480801666667e-005	0
bin	2.7440863333333e-005	0
bin	2.9400925e-005	1
bin	3.1360986666667e-005	0
bin	3.3321048333333e-005	0
bin	3.528111e-005	0
bin	3.7241171666667e-005	0
bin	3.9201233333333e-005	0
bin	4.1161295e-005	0
bin	4.3121356666667e-005	0
bin	4.5081418333333e-005	0
bin	4.704148e-005	0
bin	4.9001541666667e-005	0
bin	5.0961603333333e-005	0
bin	5.2921665e-005	0
bin	5.4881726666667e-005	0
bin	5.6841788333333e-005	0
bin	5.880185e-005	0
statistic Network.rack[2].Server[9].app e_FCT
field count 0
field mean nan
field stddev nan
field min nan
field max nan
field sum 0
field sqrsum 0
bin	-inf	0
bin	0	0
bin	0.033333333333333	0
bin	0.066666666666667	0
bin	0.1	0
bin	0.13333333333333	0
bin	0.16666666666667	0
bin	0.2	0
bin	0.23333333333333	0
bin	0.26666666666667	0
bin	0.3	0
bin	0.33333333333333	0
bin	0.36666666666667	0
bin	0.4	0
bin	0.43333333333333	0
bin	0.46666666666667	0
bin	0.5	0
bin	0.53333333333333	0
bin	0.56666666666667	0
bin	0.6	0
bin	0.63333333333333	0
bin	0.66666666666667	0
bin	0.7	0
bin	0.73333333333333	0
bin	0.76666666666667	0
bin	0.8	0
bin	0.83333333333333	0
bin	0.86666666666667	0
bin	0.9	0
bin	0.93333333333333	0
bin	0.96666666666667	0
bin	1	0
scalar Network.rack[2].Server[9].app hopCount:mean nan
attr interpolationmode none
attr title "hop count of arrived packets, mean"
scalar Network.rack[2].Server[9].app hopCount:max nan
attr interpolationmode none
attr title "hop count of arrived packets, max"
scalar Network.rack[2].Server[9].app endToEndDelay:mean nan
attr interpolationmode none
attr title "end-to-end delay of arrived packets, mean"
attr unit s
scalar Network.rack[2].Server[9].app endToEndDelay:max nan
attr interpolationmode none
attr title "end-to-end delay of arrived packets, max"
attr unit s
scalar Network.rack[2].Server[9].l2Queue rxBytes:count 0
attr interpolationmode none
attr title "received packet byte length, count"
attr unit bytes
scalar Network.rack[2].Server[9].l2Queue rxBytes:sum 0
attr interpolationmode none
attr title "received packet byte length, sum"
attr unit bytes
statistic Network.rack[2].Server[9].l2Queue rxBytes:histogram
field count 0
field mean nan
field stddev nan
field min nan
field max nan
field sum 0
field sqrsum 0
attr interpolationmode none
attr title "received packet byte length, histogram"
attr unit bytes
bin	-inf	0
bin	0	0
bin	1	0
scalar Network.rack[2].Server[9].l2Queue txBytes:count 0
attr interpolationmode none
attr title "transmitting packet byte length, count"
attr unit bytes
scalar Network.rack[2].Server[9].l2Queue txBytes:sum 0
attr interpolationmode none
attr title "transmitting packet byte length, sum"
attr unit bytes
statistic Network.rack[2].Server[9].l2Queue txBytes:histogram
field count 0
field mean nan
field stddev nan
field min nan
field max nan
field sum 0
field sqrsum 0
attr interpolationmode none
attr title "transmitting packet byte length, histogram"
attr unit bytes
bin	-inf	0
bin	0	0
bin	1	0
scalar Network.rack[2].Server[9].l2Queue drop:count 0
attr interpolationmode none
attr title "dropped packet byte length, count"
attr unit bytes
scalar Network.rack[2].Server[9].l2Queue drop:sum 0
attr interpolationmode none
attr title "dropped packet byte length, sum"
attr unit bytes
scalar Network.rack[2].Server[9].l2Queue busy:timeavg nan
attr interpolationmode sample-hold
attr title "server busy state, timeavg"
scalar Network.rack[2].Server[9].l2Queue qlen:timeavg nan
attr interpolationmode sample-hold
attr title "queue length, timeavg"
scalar Network.rack[2].Server[9].l2Queue qlen:max nan
attr interpolationmode sample-hold
attr title "queue length, max"
statistic Network.openflow_switch[0] "Inter-Rack Latency"
field count 1016
field mean 2.9579083120079e-006
field stddev 6.2565372882477e-006
field min 8.8e-007
field max 2.9918479e-005
field sum 0.003005234845
field sqrsum 4.8620631849384e-008
bin	-inf	0
bin	0	898
bin	1.9945652666667e-006	2
bin	3.9891305333333e-006	6
bin	5.9836958e-006	10
bin	7.9782610666667e-006	4
bin	9.9728263333333e-006	7
bin	1.19673916e-005	4
bin	1.3961956866667e-005	5
bin	1.5956522133333e-005	3
bin	1.79510874e-005	4
bin	1.9945652666667e-005	23
bin	2.1940217933333e-005	13
bin	2.39347832e-005	19
bin	2.5929348466667e-005	14
bin	2.7923913733333e-005	3
bin	2.9918479e-005	1
bin	3.1913044266667e-005	0
bin	3.3907609533333e-005	0
bin	3.59021748e-005	0
bin	3.7896740066667e-005	0
bin	3.9891305333333e-005	0
bin	4.18858706e-005	0
bin	4.3880435866667e-005	0
bin	4.5875001133333e-005	0
bin	4.78695664e-005	0
bin	4.9864131666667e-005	0
bin	5.1858696933333e-005	0
bin	5.38532622e-005	0
bin	5.5847827466667e-005	0
bin	5.7842392733333e-005	0
bin	5.9836958e-005	0
statistic Network.openflow_switch[0] outputIf:histogram
field count 0
field mean nan
field stddev nan
field min nan
field max nan
field sum 0
field sqrsum 0
attr interpolationmode none
attr title "output interface for each routed packet, histogram"
bin	-inf	0
bin	0	0
bin	1	0
scalar Network.openflow_switch[0] drop:count 0
attr interpolationmode none
attr title "dropped packet byte length, count"
attr unit bytes
scalar Network.openflow_switch[0] drop:sum 0
attr interpolationmode none
attr title "dropped packet byte length, sum"
attr unit bytes
statistic Network.openflow_switch[1] "Inter-Rack Latency"
field count 686
field mean 2.9609567521866e-006
field stddev 6.0019313264221e-006
field min 8.8e-007
field max 2.869498e-005
field sum 0.002031216332
field sqrsum 3.0690221771642e-008
bin	-inf	0
bin	0	595
bin	1.9129986666667e-006	9
bin	3.8259973333333e-006	3
bin	5.738996e-006	3
bin	7.6519946666667e-006	2
bin	9.5649933333333e-006	6
bin	1.1477992e-005	10
bin	1.3390990666667e-005	5
bin	1.5303989333333e-005	7
bin	1.7216988e-005	9
bin	1.9129986666667e-005	6
bin	2.1042985333333e-005	9
bin	2.2955984e-005	7
bin	2.4868982666667e-005	5
bin	2.6781981333333e-005	9
bin	2.869498e-005	1
bin	3.0607978666667e-005	0
bin	3.2520977333333e-005	0
bin	3.4433976e-005	0
bin	3.6346974666667e-005	0
bin	3.8259973333333e-005	0
bin	4.0172972e-005	0
bin	4.2085970666667e-005	0
bin	4.3998969333333e-005	0
bin	4.5911968e-005	0
bin	4.7824966666667e-005	0
bin	4.9737965333333e-005	0
bin	5.1650964e-005	0
bin	5.3563962666667e-005	0
bin	5.5476961333333e-005	0
bin	5.738996e-005	0
statistic Network.openflow_switch[1] outputIf:histogram
field count 0
field mean nan
field stddev nan
field min nan
field max nan
field sum 0
field sqrsum 0
attr interpolationmode none
attr title "output interface for each routed packet, histogram"
bin	-inf	0
bin	0	0
bin	1	0
scalar Network.openflow_switch[1] drop:count 0
attr interpolationmode none
attr title "dropped packet byte length, count"
attr unit bytes
scalar Network.openflow_switch[1] drop:sum 0
attr interpolationmode none
attr title "dropped packet byte length, sum"
attr unit bytes

