file 178985648 1625025246                                       
version 2
run General-0-20210630-11:47:16-19336
attr configname General
attr datetime 20210630-11:47:16
attr experiment General
attr inifile omnetpp.ini
attr iterationvars ""
attr iterationvarsf ""
attr measurement ""
attr network Network
attr processid 19336
attr repetition 0
attr replication #0
attr resultdir results
attr runnumber 0
attr seedset 0
param **.numOfNode 10
param **.numOfRack 3
param **.numOfCoreSwitch 0
param **.numOfMEMS 2
param **.packetLength 1000byte
param **.offerload "0.1+0.1* 0"
param Network.EDataRate 10Gbps
param Network.ODataRate 100Gbps
param **.Rack_Rate 10Gbps
param **.T_night 0.0003
param **.T_day 0.003
param **.T_report 0.003
param **.Server_Rate 0.0000008
param **.algorithm_ID 0
param **.deadlineWeight 12.8

vector 0 Network.openflow_switch[0] packet ETV
vector 1 Network.openflow_switch[0] "Inter-Rack Latency" ETV
vector 2 Network.rack[1].Server[9].app e_Latency ETV
vector 3 Network.rack[1].Server[9].app e_packet ETV
vector 4 Network.rack[1].Server[9].app Latency ETV
vector 5 Network.rack[1].Server[9].app packet ETV
vector 6 Network.rack[1].Server[6].app e_Latency ETV
vector 7 Network.rack[1].Server[6].app e_packet ETV
vector 8 Network.rack[1].Server[6].app Latency ETV
vector 9 Network.rack[1].Server[6].app packet ETV
vector 10 Network.rack[2].Server[9].app e_Latency ETV
vector 11 Network.rack[2].Server[9].app e_packet ETV
vector 12 Network.rack[2].Server[9].app Latency ETV
vector 13 Network.rack[2].Server[9].app packet ETV
vector 14 Network.openflow_controller failureRate ETV
vector 15 Network.rack[1].Server[9].app e_FCT ETV
vector 16 Network.rack[1].Server[9].app FCT ETV
vector 17 Network.rack[2].Server[9].app e_FCT ETV
vector 18 Network.rack[2].Server[9].app FCT ETV
vector 19 Network.rack[1].Server[6].app e_FCT ETV
vector 20 Network.rack[1].Server[6].app FCT ETV
vector 21 Network.rack[0].Server[9].app m_Latency ETV
vector 22 Network.rack[0].Server[9].app m_packet ETV
vector 23 Network.rack[0].Server[9].app Latency ETV
vector 24 Network.rack[0].Server[9].app packet ETV
vector 25 Network.rack[0].Server[9].app m_FCT ETV
vector 26 Network.rack[0].Server[9].app FCT ETV
vector 27 Network.openflow_switch[1] packet ETV
vector 28 Network.openflow_switch[1] "Inter-Rack Latency" ETV
vector 29 Network.rack[1].Server[6].app m_Latency ETV
vector 30 Network.rack[1].Server[6].app m_packet ETV
vector 31 Network.rack[1].Server[6].app m_FCT ETV
vector 32 Network.rack[1].Server[0].app m_Latency ETV
vector 33 Network.rack[1].Server[0].app m_packet ETV
vector 34 Network.rack[1].Server[0].app Latency ETV
vector 35 Network.rack[1].Server[0].app packet ETV
vector 36 Network.rack[1].Server[0].app m_FCT ETV
vector 37 Network.rack[1].Server[0].app FCT ETV
vector 38 Network.rack[1].Server[1].app m_Latency ETV
vector 39 Network.rack[1].Server[1].app m_packet ETV
vector 40 Network.rack[1].Server[1].app Latency ETV
vector 41 Network.rack[1].Server[1].app packet ETV
vector 42 Network.rack[1].Server[1].app m_FCT ETV
vector 43 Network.rack[1].Server[1].app FCT ETV
vector 44 Network.rack[1].Server[8].app m_Latency ETV
vector 45 Network.rack[1].Server[8].app m_packet ETV
vector 46 Network.rack[1].Server[8].app Latency ETV
vector 47 Network.rack[1].Server[8].app packet ETV
vector 48 Network.rack[1].Server[8].app m_FCT ETV
vector 49 Network.rack[1].Server[8].app FCT ETV
vector 50 Network.rack[0].Server[8].app m_Latency ETV
vector 51 Network.rack[0].Server[8].app m_packet ETV
vector 52 Network.rack[0].Server[8].app Latency ETV
vector 53 Network.rack[0].Server[8].app packet ETV
vector 54 Network.rack[0].Server[8].app m_FCT ETV
vector 55 Network.rack[0].Server[8].app FCT ETV
vector 56 Network.rack[1].Server[2].app m_Latency ETV
vector 57 Network.rack[1].Server[2].app m_packet ETV
vector 58 Network.rack[1].Server[2].app Latency ETV
vector 59 Network.rack[1].Server[2].app packet ETV
vector 60 Network.rack[1].Server[2].app m_FCT ETV
vector 61 Network.rack[1].Server[2].app FCT ETV
vector 62 Network.rack[0].Server[6].app m_Latency ETV
vector 63 Network.rack[0].Server[6].app m_packet ETV
vector 64 Network.rack[0].Server[6].app Latency ETV
vector 65 Network.rack[0].Server[6].app packet ETV
vector 66 Network.rack[0].Server[6].app m_FCT ETV
vector 67 Network.rack[0].Server[6].app FCT ETV
vector 68 Network.rack[0].Server[2].app e_Latency ETV
vector 69 Network.rack[0].Server[2].app e_packet ETV
vector 70 Network.rack[0].Server[2].app Latency ETV
vector 71 Network.rack[0].Server[2].app packet ETV
vector 72 Network.rack[1].Server[5].app m_Latency ETV
vector 73 Network.rack[1].Server[5].app m_packet ETV
vector 74 Network.rack[1].Server[5].app Latency ETV
vector 75 Network.rack[1].Server[5].app packet ETV
vector 76 Network.rack[1].Server[5].app m_FCT ETV
vector 77 Network.rack[1].Server[5].app FCT ETV
vector 78 Network.rack[2].Server[4].app m_Latency ETV
vector 79 Network.rack[2].Server[4].app m_packet ETV
vector 80 Network.rack[2].Server[4].app Latency ETV
vector 81 Network.rack[2].Server[4].app packet ETV
vector 82 Network.rack[2].Server[4].app m_FCT ETV
vector 83 Network.rack[2].Server[4].app FCT ETV
vector 84 Network.rack[2].Server[5].app m_Latency ETV
vector 85 Network.rack[2].Server[5].app m_packet ETV
vector 86 Network.rack[2].Server[5].app Latency ETV
vector 87 Network.rack[2].Server[5].app packet ETV
vector 88 Network.rack[2].Server[5].app m_FCT ETV
vector 89 Network.rack[2].Server[5].app FCT ETV
vector 90 Network.rack[1].Server[9].app m_Latency ETV
vector 91 Network.rack[1].Server[9].app m_packet ETV
vector 92 Network.rack[1].Server[9].app m_FCT ETV
vector 93 Network.rack[2].Server[1].app m_Latency ETV
vector 94 Network.rack[2].Server[1].app m_packet ETV
vector 95 Network.rack[2].Server[1].app Latency ETV
vector 96 Network.rack[2].Server[1].app packet ETV
vector 97 Network.rack[2].Server[1].app m_FCT ETV
vector 98 Network.rack[2].Server[1].app FCT ETV
vector 99 Network.rack[2].Server[8].app m_Latency ETV
vector 100 Network.rack[2].Server[8].app m_packet ETV
vector 101 Network.rack[2].Server[8].app Latency ETV
vector 102 Network.rack[2].Server[8].app packet ETV
vector 103 Network.rack[2].Server[8].app m_FCT ETV
vector 104 Network.rack[2].Server[8].app FCT ETV
vector 105 Network.rack[1].Server[3].app m_Latency ETV
vector 106 Network.rack[1].Server[3].app m_packet ETV
vector 107 Network.rack[1].Server[3].app Latency ETV
vector 108 Network.rack[1].Server[3].app packet ETV
vector 109 Network.rack[1].Server[3].app m_FCT ETV
vector 110 Network.rack[1].Server[3].app FCT ETV
vector 111 Network.rack[2].Server[6].app m_Latency ETV
vector 112 Network.rack[2].Server[6].app m_packet ETV
vector 113 Network.rack[2].Server[6].app Latency ETV
vector 114 Network.rack[2].Server[6].app packet ETV
vector 115 Network.rack[2].Server[6].app m_FCT ETV
vector 116 Network.rack[2].Server[6].app FCT ETV
vector 117 Network.rack[0].Server[4].app m_Latency ETV
vector 118 Network.rack[0].Server[4].app m_packet ETV
vector 119 Network.rack[0].Server[4].app Latency ETV
vector 120 Network.rack[0].Server[4].app packet ETV
vector 121 Network.rack[0].Server[4].app m_FCT ETV
vector 122 Network.rack[0].Server[4].app FCT ETV
vector 123 Network.rack[0].Server[1].app m_Latency ETV
vector 124 Network.rack[0].Server[1].app m_packet ETV
vector 125 Network.rack[0].Server[1].app Latency ETV
vector 126 Network.rack[0].Server[1].app packet ETV
vector 127 Network.rack[0].Server[1].app m_FCT ETV
vector 128 Network.rack[0].Server[1].app FCT ETV
vector 129 Network.rack[0].Server[3].app e_Latency ETV
vector 130 Network.rack[0].Server[3].app e_packet ETV
vector 131 Network.rack[0].Server[3].app Latency ETV
vector 132 Network.rack[0].Server[3].app packet ETV
vector 133 Network.rack[2].Server[1].app e_Latency ETV
vector 134 Network.rack[2].Server[1].app e_packet ETV
vector 135 Network.rack[0].Server[5].app m_Latency ETV
vector 136 Network.rack[0].Server[5].app m_packet ETV
vector 137 Network.rack[0].Server[5].app Latency ETV
vector 138 Network.rack[0].Server[5].app packet ETV
vector 139 Network.rack[0].Server[5].app m_FCT ETV
vector 140 Network.rack[0].Server[5].app FCT ETV
vector 141 Network.rack[2].Server[7].app m_Latency ETV
vector 142 Network.rack[2].Server[7].app m_packet ETV
vector 143 Network.rack[2].Server[7].app Latency ETV
vector 144 Network.rack[2].Server[7].app packet ETV
vector 145 Network.rack[2].Server[7].app m_FCT ETV
vector 146 Network.rack[2].Server[7].app FCT ETV
vector 147 Network.rack[2].Server[3].app m_Latency ETV
vector 148 Network.rack[2].Server[3].app m_packet ETV
vector 149 Network.rack[2].Server[3].app Latency ETV
vector 150 Network.rack[2].Server[3].app packet ETV
vector 151 Network.rack[2].Server[3].app m_FCT ETV
vector 152 Network.rack[2].Server[3].app FCT ETV
vector 153 Network.rack[2].Server[9].app m_Latency ETV
vector 154 Network.rack[2].Server[9].app m_packet ETV
vector 155 Network.rack[2].Server[9].app m_FCT ETV
vector 156 Network.rack[0].Server[7].app m_Latency ETV
vector 157 Network.rack[0].Server[7].app m_packet ETV
vector 158 Network.rack[0].Server[7].app Latency ETV
vector 159 Network.rack[0].Server[7].app packet ETV
vector 160 Network.rack[0].Server[7].app m_FCT ETV
vector 161 Network.rack[0].Server[7].app FCT ETV
vector 162 Network.rack[0].Server[0].app m_Latency ETV
vector 163 Network.rack[0].Server[0].app m_packet ETV
vector 164 Network.rack[0].Server[0].app Latency ETV
vector 165 Network.rack[0].Server[0].app packet ETV
vector 166 Network.rack[0].Server[2].app e_FCT ETV
vector 167 Network.rack[0].Server[2].app FCT ETV
vector 168 Network.rack[0].Server[0].app m_FCT ETV
vector 169 Network.rack[0].Server[0].app FCT ETV
vector 170 Network.rack[0].Server[3].app m_Latency ETV
vector 171 Network.rack[0].Server[3].app m_packet ETV
vector 172 Network.rack[0].Server[3].app m_FCT ETV
vector 173 Network.rack[0].Server[3].app FCT ETV
vector 174 Network.rack[1].Server[7].app m_Latency ETV
vector 175 Network.rack[1].Server[7].app m_packet ETV
vector 176 Network.rack[1].Server[7].app Latency ETV
vector 177 Network.rack[1].Server[7].app packet ETV
vector 178 Network.rack[1].Server[7].app m_FCT ETV
vector 179 Network.rack[1].Server[7].app FCT ETV
vector 180 Network.rack[1].Server[7].app e_Latency ETV
vector 181 Network.rack[1].Server[7].app e_packet ETV
vector 182 Network.rack[2].Server[0].app m_Latency ETV
vector 183 Network.rack[2].Server[0].app m_packet ETV
vector 184 Network.rack[2].Server[0].app Latency ETV
vector 185 Network.rack[2].Server[0].app packet ETV
vector 186 Network.rack[2].Server[0].app m_FCT ETV
vector 187 Network.rack[2].Server[0].app FCT ETV
vector 188 Network.rack[1].Server[4].app m_Latency ETV
vector 189 Network.rack[1].Server[4].app m_packet ETV
vector 190 Network.rack[1].Server[4].app Latency ETV
vector 191 Network.rack[1].Server[4].app packet ETV
vector 192 Network.rack[1].Server[4].app m_FCT ETV
vector 193 Network.rack[1].Server[4].app FCT ETV
vector 194 Network.rack[0].Server[2].app m_Latency ETV
vector 195 Network.rack[0].Server[2].app m_packet ETV
vector 196 Network.rack[0].Server[2].app m_FCT ETV
vector 197 Network.rack[2].Server[2].app m_Latency ETV
vector 198 Network.rack[2].Server[2].app m_packet ETV
vector 199 Network.rack[2].Server[2].app Latency ETV
vector 200 Network.rack[2].Server[2].app packet ETV
vector 201 Network.rack[2].Server[2].app m_FCT ETV
vector 202 Network.rack[2].Server[2].app FCT ETV
vector 203 Network.rack[2].Server[2].app e_Latency ETV
vector 204 Network.rack[2].Server[2].app e_packet ETV
vector 205 Network.rack[0].Server[9].app e_Latency ETV
vector 206 Network.rack[0].Server[9].app e_packet ETV
vector 207 Network.rack[0].Server[3].app e_FCT ETV
vector 208 Network.rack[2].Server[1].app e_FCT ETV
vector 209 Network.rack[0].Server[0].app e_Latency ETV
vector 210 Network.rack[0].Server[0].app e_packet ETV
vector 211 Network.rack[1].Server[7].app e_FCT ETV
vector 212 Network.rack[1].Server[2].app e_Latency ETV
vector 213 Network.rack[1].Server[2].app e_packet ETV
vector 214 Network.rack[2].Server[2].app e_FCT ETV
vector 215 Network.rack[0].Server[9].app e_FCT ETV
vector 216 Network.rack[0].Server[0].app e_FCT ETV
vector 217 Network.rack[2].Server[5].app e_Latency ETV
vector 218 Network.rack[2].Server[5].app e_packet ETV
vector 219 Network.rack[1].Server[2].app e_FCT ETV
vector 220 Network.rack[2].Server[0].app e_Latency ETV
vector 221 Network.rack[2].Server[0].app e_packet ETV
vector 222 Network.rack[2].Server[5].app e_FCT ETV
vector 223 Network.rack[2].Server[8].app e_Latency ETV
vector 224 Network.rack[2].Server[8].app e_packet ETV
vector 225 Network.rack[2].Server[6].app e_Latency ETV
vector 226 Network.rack[2].Server[6].app e_packet ETV
0	12845 896041 4204639 4746205 0.100000326115 0.115462324691 32768 1 1 32768 32768
1	908886 1174239 4204639 4746205 0.100000326115 0.115462324691 32768 8.8e-007 0.000300858004 0.82012467858474 0.00016455330407854
vector 227 Network.rack[2].Server[0].app e_FCT ETV
vector 228 Network.rack[0].Server[4].app e_Latency ETV
vector 229 Network.rack[0].Server[4].app e_packet ETV
vector 230 Network.rack[2].Server[6].app e_FCT ETV
vector 231 Network.rack[2].Server[8].app e_FCT ETV
vector 232 Network.rack[1].Server[1].app e_Latency ETV
vector 233 Network.rack[1].Server[1].app e_packet ETV
27	2083503 934021 4271343 4845358 0.102700799748 0.11846527727 32768 1 1 32768 32768
28	3017524 1181451 4271343 4845358 0.102700799748 0.11846527727 32768 8.8e-007 0.000300858004 0.48742490172075 9.3029694448758e-005
vector 234 Network.rack[0].Server[4].app e_FCT ETV
vector 235 Network.rack[1].Server[8].app e_Latency ETV
vector 236 Network.rack[1].Server[8].app e_packet ETV
vector 237 Network.rack[1].Server[1].app e_FCT ETV
vector 238 Network.rack[1].Server[4].app e_Latency ETV
vector 239 Network.rack[1].Server[4].app e_packet ETV
vector 240 Network.rack[1].Server[8].app e_FCT ETV
vector 241 Network.rack[1].Server[3].app e_Latency ETV
vector 242 Network.rack[1].Server[3].app e_packet ETV
vector 243 Network.rack[1].Server[4].app e_FCT ETV
vector 244 Network.rack[0].Server[1].app e_Latency ETV
vector 245 Network.rack[0].Server[1].app e_packet ETV
vector 246 Network.rack[2].Server[4].app e_Latency ETV
vector 247 Network.rack[2].Server[4].app e_packet ETV
vector 248 Network.rack[1].Server[3].app e_FCT ETV
0	4199790 666513 4746227 5194861 0.115463044691 0.129148721606 24398 1 1 24398 24398
1	4866303 864966 4746227 5194861 0.115463044691 0.129148721606 24398 8.8e-007 0.000300836657 0.59712521367383 0.00011970206699701
2	5731269 206444 4204641 4660200 0.100000326115 0.11205256 5685 1.68e-006 0.000301543534 0.55640706226203 0.00016218099733965
3	5937713 152044 4204641 4660200 0.100000326115 0.11205256 5685 1 1 5685 5685
4	6089757 207667 4204641 5081822 0.100000326115 0.126764905598 5719 1.68e-006 0.000301543534 0.55717208315203 0.00016226147480073
5	6297424 152960 4204641 5081822 0.100000326115 0.126764905598 5719 1 1 5719 5719
6	6450384 223359 4204647 4375271 0.100000406115 0.10601008 5930 1.68e-006 0.000303196784 0.611895901732 0.00018254508515203
7	6673743 158012 4204647 4375271 0.100000406115 0.10601008 5930 1 1 5930 5930
8	6831755 224247 4204647 5060650 0.100000406115 0.125613599053 5955 1.68e-006 0.000303196784 0.612539768684 0.00018272830021894
9	7056002 158690 4204647 5060650 0.100000406115 0.125613599053 5955 1 1 5955 5955
10	7214692 100931 4204655 4270611 0.100000778435 0.10247008 2713 1.68e-006 0.000301381565 0.16939370075 4.9963071098217e-005
11	7315623 76477 4204655 4270611 0.100000778435 0.10247008 2713 1 1 2713 2713
12	7392100 102637 4204655 5143110 0.100000778435 0.128176107236 2759 1.68e-006 0.000301381565 0.169471069748 4.9963201231611e-005
13	7494737 77807 4204655 5143110 0.100000778435 0.128176107236 2759 1 1 2759 2759
14	7572544 220 4258828 5183258 0.10203 0.12903 10 0 0 0 0
15	7572764 76 4270346 4660200 0.10243488 0.11205256 2 0.002707143534 0.002777033885 0.005484177419 1.5040543312116e-005
16	7572840 483 4270346 5081822 0.10243488 0.126764905598 13 2.48e-006 0.002777033885 0.005732052976 1.5066305646881e-005
17	7573323 38 4270611 4270611 0.10247008 0.10247008 1 0.002679781565 0.002679781565 0.002679781565 7.1812292361138e-006
18	7573361 595 4270611 5143110 0.10247008 0.128176107236 16 2.48e-006 0.002679781565 0.002729826064 7.181403122809e-006
19	7573956 75 4271316 4375271 0.10265736 0.10601008 2 0.002687996784 0.00272505323 0.005413050014 1.4651241817128e-005
20	7574031 368 4271316 5060650 0.10265736 0.125613599053 10 2.48e-006 0.00272505323 0.00574142349 1.4743634090127e-005
21	7574399 1884 4271331 5082138 0.102695998277 0.126777433145 50 1.68e-006 0.00030453881 0.003209393672 8.0896821201342e-007
22	7576283 1376 4271331 5082138 0.102695998277 0.126777433145 50 1 1 50 50
23	7577659 331663 4271331 5192303 0.102695998277 0.12909336 8847 1.68e-006 0.000304915233 1.3119943088502 0.00039242161646723
24	7909322 239329 4271331 5192303 0.102695998277 0.12909336 8847 1 1 8847 8847
25	8148651 640 4271335 5082138 0.102696798277 0.126777433145 17 2.48e-006 0.00030613881 0.001181562371 3.0178886257081e-007
26	8149291 754 4271335 5192303 0.102696798277 0.12909336 20 2.48e-006 0.002676452178 0.009126936637 2.1346081380224e-005
27	8150045 607136 4845368 5194867 0.118465449442 0.129148948264 21273 1 1 21273 21273
28	8757181 763954 4845368 5194867 0.118465449442 0.129148948264 21273 8.8e-007 0.000300411736 0.18037453030202 2.971315358134e-005
29	9521135 913 4271352 5060650 0.102701599748 0.125613599053 25 1.68e-006 0.000303013476 0.000643866952 1.8321506691361e-007
30	9522048 703 4271352 5060650 0.102701599748 0.125613599053 25 1 1 25 25
31	9522751 293 4271372 5060650 0.102703999748 0.125613599053 8 2.48e-006 0.000303813476 0.000328373476 9.2392272999203e-008
32	9523044 1224 4271389 5062603 0.102733630522 0.12603328 33 1.68e-006 0.000260173502 0.002116712072 5.3812990374135e-007
33	9524268 920 4271389 5062603 0.102733630522 0.12603328 33 1 1 33 33
34	9525188 1224 4271389 5062603 0.102733630522 0.12603328 33 1.68e-006 0.000260173502 0.002116712072 5.3812990374135e-007
35	9526412 920 4271389 5062603 0.102733630522 0.12603328 33 1 1 33 33
36	9527332 334 4271409 5062603 0.102736030522 0.12603328 9 3.28e-006 0.000262573502 0.000549638018 1.3711487122174e-007
37	9527666 334 4271409 5062603 0.102736030522 0.12603328 9 3.28e-006 0.000262573502 0.000549638018 1.3711487122174e-007
38	9528000 483 4271424 5062620 0.10284285475 0.12603408 13 1.68e-006 0.000210949111 0.000858916444 1.7802351132676e-007
39	9528483 359 4271424 5062620 0.10284285475 0.12603408 13 1 1 13 13
40	9528842 339448 4271424 5194863 0.10284285475 0.129148721606 8934 1.68e-006 0.000837453342 1.680341523043 0.00072965297649051
41	9868290 248512 4271424 5194863 0.10284285475 0.129148721606 8934 1 1 8934 8934
42	10116802 148 4271428 5062620 0.10284365475 0.12603408 4 2.48e-006 0.000213349111 0.000223189111 4.555139836449e-008
43	10116950 224 4271428 5062620 0.10284365475 0.12603408 6 2.48e-006 0.002763910558 0.005655701778 1.4806190187148e-005
44	10117174 1942 4271444 5062611 0.102856042672 0.12603376 52 1.68e-006 0.000235917603 0.00134387799 2.2020634442914e-007
45	10119116 1469 4271444 5062611 0.102856042672 0.12603376 52 1 1 52 52
46	10120585 116022 4271444 5062611 0.102856042672 0.12603376 3135 1.68e-006 0.000301011413 0.013587700707 1.0695241828355e-006
47	10236607 90840 4271444 5062611 0.102856042672 0.12603376 3135 1 1 3135 3135
48	10327447 672 4271456 5062611 0.102857642672 0.12603376 18 2.48e-006 0.000237517603 0.00047707933 7.4888109696645e-008
49	10328119 710 4271456 5062611 0.102857642672 0.12603376 19 2.48e-006 0.002766611413 0.003243690743 7.7290268202385e-006
50	10328829 2266 4271472 5141817 0.102862281649 0.128149413982 61 1.68e-006 0.000270317074 0.001444468289 2.490921214166e-007
51	10331095 1725 4271472 5141817 0.102862281649 0.128149413982 61 1 1 61 61
52	10332820 2266 4271472 5141817 0.102862281649 0.128149413982 61 1.68e-006 0.000270317074 0.001444468289 2.490921214166e-007
53	10335086 1725 4271472 5141817 0.102862281649 0.128149413982 61 1 1 61 61
54	10336811 782 4271484 5141817 0.102863881649 0.128149413982 21 2.48e-006 0.000271117074 0.00055634951 1.0189566191097e-007
55	10337593 782 4271484 5141817 0.102863881649 0.128149413982 21 2.48e-006 0.000271117074 0.00055634951 1.0189566191097e-007
56	10338375 1914 4271499 5082851 0.102869651035 0.126806580065 51 1.68e-006 0.000295760919 0.002001831702 5.3100199438079e-007
57	10340289 1443 4271499 5082851 0.102869651035 0.126806580065 51 1 1 51 51
58	10341732 115685 4271499 5082851 0.102869651035 0.126806580065 3102 1.68e-006 0.000301548108 0.277946919174 8.0957975006707e-005
59	10457417 86386 4271499 5082851 0.102869651035 0.126806580065 3102 1 1 3102 3102
60	10543803 525 4271503 5082851 0.102870451035 0.126806580065 14 2.48e-006 0.000298160919 0.000594333759 1.5021350049264e-007
61	10544328 563 4271503 5082851 0.102870451035 0.126806580065 15 2.48e-006 0.002741548108 0.003335881867 7.666299528971e-006
62	10544891 2038 4271519 4906337 0.10287508087 0.121369016488 55 1.68e-006 0.000268877074 0.000875110485 1.7638773607226e-007
63	10546929 1566 4271519 4906337 0.10287508087 0.121369016488 55 1 1 55 55
64	10548495 2038 4271519 4906337 0.10287508087 0.121369016488 55 1.68e-006 0.000268877074 0.000875110485 1.7638773607226e-007
65	10550533 1566 4271519 4906337 0.10287508087 0.121369016488 55 1 1 55 55
66	10552099 668 4271531 4906337 0.10287668087 0.121369016488 18 2.48e-006 0.000269677074 0.000451184194 8.8949619934629e-008
67	10552767 668 4271531 4906337 0.10287668087 0.121369016488 18 2.48e-006 0.000269677074 0.000451184194 8.8949619934629e-008
68	10553435 457263 4274597 4687564 0.102914473677 0.11290368 12093 1.68e-006 0.001440858004 8.4690927474718 0.010105272647547
69	11010698 311409 4274597 4687564 0.102914473677 0.11290368 12093 1 1 12093 12093
70	11322107 458660 4274597 5062626 0.102914473677 0.12603488 12130 1.68e-006 0.001440858004 8.4873766271528 0.010128961465563
71	11780767 312370 4274597 5062626 0.102914473677 0.12603488 12130 1 1 12130 12130
72	12093137 1397 4278127 5108077 0.103266231699 0.127474071633 38 1.68e-006 9.098194e-005 0.00024244388 1.6657033212327e-008
73	12094534 1085 4278127 5108077 0.103266231699 0.127474071633 38 1 1 38 38
74	12095619 1397 4278127 5108077 0.103266231699 0.127474071633 38 1.68e-006 9.098194e-005 0.00024244388 1.6657033212327e-008
75	12097016 1085 4278127 5108077 0.103266231699 0.127474071633 38 1 1 38 38
76	12098101 478 4278171 5108077 0.103268631699 0.127474071633 13 2.48e-006 9.178194e-005 0.00013114194 8.5594253101636e-009
77	12098579 478 4278171 5108077 0.103268631699 0.127474071633 13 2.48e-006 9.178194e-005 0.00013114194 8.5594253101636e-009
78	12099057 1549 4278483 4715137 0.103297869319 0.114304966857 42 1.68e-006 0.000205914659 0.000683263977 1.2731261397326e-007
79	12100606 1198 4278483 4715137 0.103297869319 0.114304966857 42 1 1 42 42
80	12101804 31001 4278483 5194853 0.103297869319 0.12914848 834 1.68e-006 0.000301030959 0.046317765909 1.3540836704489e-005
81	12132805 23574 4278483 5194853 0.103297869319 0.12914848 834 1 1 834 834
82	12156379 553 4278511 4715137 0.103299469319 0.114304966857 15 2.48e-006 0.000207514659 0.000251034659 4.3200407299886e-008
83	12156932 553 4278511 4715137 0.103299469319 0.114304966857 15 2.48e-006 0.000207514659 0.000251034659 4.3200407299886e-008
84	12157485 2413 4278591 5168463 0.103306344552 0.128607222562 65 1.68e-006 0.000225451889 0.000878495098 1.2835028592141e-007
85	12159898 1841 4278591 5168463 0.103306344552 0.128607222562 65 1 1 65 65
86	12161739 115911 4278591 5168463 0.103306344552 0.128607222562 3126 1.68e-006 0.000301658004 0.078315674062 2.2066719335842e-005
87	12277650 89646 4278591 5168463 0.103306344552 0.128607222562 3126 1 1 3126 3126
88	12367296 779 4278619 5168463 0.103307944552 0.128607222562 21 2.48e-006 0.000226251889 0.00042762969 6.4141267821509e-008
89	12368075 817 4278619 5168463 0.103307944552 0.128607222562 22 2.48e-006 0.002749658004 0.003177287694 7.6247604067828e-006
90	12368892 1257 4299319 5081822 0.104200114766 0.126764905598 34 1.68e-006 0.000137761338 0.00076502089 8.0477461079531e-008
91	12370149 950 4299319 5081822 0.104200114766 0.126764905598 34 1 1 34 34
92	12371099 407 4299363 5081822 0.104201714766 0.126764905598 11 2.48e-006 0.000139361338 0.000247875557 2.576233476457e-008
93	12371506 2572 4300383 5166645 0.104250772376 0.12856898072 69 1.68e-006 0.000307508118 0.00525727032 1.3231938731028e-006
94	12374078 1905 4300383 5166645 0.104250772376 0.12856898072 69 1 1 69 69
95	12375983 343407 4300383 5166645 0.104250772376 0.12856898072 9177 1.68e-006 0.000307678873 1.1879057619098 0.00035398792062347
96	12719390 239945 4300383 5166645 0.104250772376 0.12856898072 9177 1 1 9177 9177
97	12959335 858 4300427 5166645 0.104252372376 0.12856898072 23 2.48e-006 0.000309908118 0.00181317046 4.3978110646706e-007
98	12960193 972 4300427 5166645 0.104252372376 0.12856898072 26 2.48e-006 0.002751678873 0.01000760839 2.2824886910319e-005
99	12961165 1258 4300615 5070555 0.1042607479 0.126396840538 34 1.68e-006 0.000186488584 0.000800095711 1.392138768316e-007
100	12962423 988 4300615 5070555 0.1042607479 0.126396840538 34 1 1 34 34
101	12963411 125974 4300615 5194851 0.1042607479 0.12914848 3353 1.68e-006 0.00030141471 0.48528520523501 0.00014528340818243
102	13089385 92578 4300615 5194851 0.1042607479 0.12914848 3353 1 1 3353 3353
103	13181963 455 4300639 5070555 0.1042615479 0.126396840538 12 2.48e-006 0.000188888584 0.000223815709 3.5795712026291e-008
104	13182418 493 4300639 5070555 0.1042615479 0.126396840538 13 2.48e-006 0.00273101471 0.002954830419 7.4942370582627e-006
105	13182911 1616 4302126 4906114 0.104330523101 0.121359940066 42 1.68e-006 0.000275940846 0.002147453636 4.6369758887069e-007
106	13184527 1213 4302126 4906114 0.104330523101 0.121359940066 42 1 1 42 42
107	13185740 115616 4302126 5161029 0.104330523101 0.128448361582 3042 1.68e-006 0.000275940846 0.0071874536360008 4.7216478887069e-007
108	13301356 91213 4302126 5161029 0.104330523101 0.128448361582 3042 1 1 3042 3042
109	13392569 499 4302163 4906114 0.104331323101 0.121359940066 13 2.48e-006 0.000278340846 0.000614137523 1.2858588501065e-007
110	13393068 538 4302163 5161029 0.104331323101 0.128448361582 14 2.48e-006 0.00240088 0.003015017523 5.8928106594107e-006
111	13393606 2061 4302195 5134493 0.104332123101 0.127995712445 54 1.68e-006 0.000259913303 0.001461332335 2.9569934170336e-007
112	13395667 1584 4302195 5134493 0.104332123101 0.127995712445 54 1 1 54 54
113	13397251 118449 4302195 5134493 0.104332123101 0.127995712445 3079 1.68e-006 0.000301475013 0.437648561029 0.0001309959483108
114	13515700 86582 4302195 5134493 0.104332123101 0.127995712445 3079 1 1 3079 3079
115	13602282 725 4302246 5134493 0.104333723101 0.127995712445 19 2.48e-006 0.000262313303 0.000460052547 8.0427755755308e-008
116	13603007 764 4302246 5134493 0.104333723101 0.127995712445 20 2.48e-006 0.002720675013 0.00318072756 7.4825002821179e-006
117	13603771 1974 4304815 5070604 0.104456598308 0.126399099624 51 1.68e-006 0.000200440396 0.001001402272 1.4990108950324e-007
118	13605745 1504 4304815 5070604 0.104456598308 0.126399099624 51 1 1 51 51
119	13607249 117912 4304815 5070604 0.104456598308 0.126399099624 3102 1.68e-006 0.000200440396 0.101570691502 3.4649394166836e-006
120	13725161 80830 4304815 5070604 0.104456598308 0.126399099624 3102 1 1 3102 3102
121	13805991 694 4304863 5070604 0.104458198308 0.126399099624 18 2.48e-006 0.000201240396 0.000514431788 7.5797253795807e-008
122	13806685 732 4304863 5070604 0.104458198308 0.126399099624 19 2.48e-006 0.00247296273 0.002987394518 6.1913419177649e-006
123	13807417 2827 4304887 5141942 0.104458998308 0.128151723343 72 1.68e-006 8.932915e-006 0.000160832582 5.352241942798e-010
124	13810244 2158 4304887 5141942 0.104458998308 0.128151723343 72 1 1 72 72
125	13812402 45497 4304887 5194852 0.104458998308 0.12914848 1191 1.68e-006 0.000301636657 0.053246337818 1.3543022075822e-005
126	13857899 35136 4304887 5194852 0.104458998308 0.12914848 1191 1 1 1191 1191
127	13893035 863 4304931 5141942 0.104460598308 0.128151723343 22 2.48e-006 1.1332915e-005 9.1002114e-005 4.5815098840403e-010
128	13893898 863 4304931 5141942 0.104460598308 0.128151723343 22 2.48e-006 1.1332915e-005 9.1002114e-005 4.5815098840403e-010
129	13894761 114567 4308084 4435559 0.104469766619 0.10713728 2946 1.68e-006 0.000313193381 0.79743162483899 0.00024251778024262
130	14009328 77904 4308084 4435559 0.104469766619 0.10713728 2946 1 1 2946 2946
131	14087232 116724 4308084 4905150 0.104469766619 0.121316199645 3002 1.68e-006 0.000313193381 0.80309509300599 0.00024418050670183
132	14203956 79502 4308084 4905150 0.104469766619 0.121316199645 3002 1 1 3002 3002
133	14283458 349943 4313864 4814572 0.104556881127 0.11727568 9108 1.68e-006 0.000307678873 1.1826484915898 0.00035266472675036
134	14633401 247148 4313864 4814572 0.104556881127 0.11727568 9108 1 1 9108 9108
135	14880549 2535 4344637 5140927 0.105366364571 0.128131145292 66 1.68e-006 0.000262452666 0.002445451996 4.4433096054329e-007
136	14883084 1900 4344637 5140927 0.105366364571 0.128131145292 66 1 1 66 66
137	14884984 2535 4344637 5140927 0.105366364571 0.128131145292 66 1.68e-006 0.000262452666 0.002445451996 4.4433096054329e-007
138	14887519 1900 4344637 5140927 0.105366364571 0.128131145292 66 1 1 66 66
139	14889419 847 4344668 5140927 0.105367164571 0.128131145292 22 2.48e-006 0.000264052666 0.000848014296 1.500189620905e-007
140	14890266 847 4344668 5140927 0.105367164571 0.128131145292 22 2.48e-006 0.000264052666 0.000848014296 1.500189620905e-007
141	14891113 2579 4344857 4871643 0.105372308214 0.120166346129 68 1.68e-006 0.000234704648 0.001295884728 2.2725613316886e-007
142	14893692 2000 4344857 4871643 0.105372308214 0.120166346129 68 1 1 68 68
143	14895692 2579 4344857 4871643 0.105372308214 0.120166346129 68 1.68e-006 0.000234704648 0.001295884728 2.2725613316886e-007
144	14898271 2000 4344857 4871643 0.105372308214 0.120166346129 68 1 1 68 68
145	14900271 798 4344958 4871643 0.105374708214 0.120166346129 21 2.48e-006 0.000236304648 0.00054719004 8.7381322188829e-008
146	14901069 798 4344958 4871643 0.105374708214 0.120166346129 21 2.48e-006 0.000236304648 0.00054719004 8.7381322188829e-008
147	14901867 983 4347971 4977941 0.105461419969 0.12303232 26 1.68e-006 0.000240991229 0.001381162872 2.933325494541e-007
148	14902850 735 4347971 4977941 0.105461419969 0.12303232 26 1 1 26 26
149	14903585 983 4347971 4977941 0.105461419969 0.12303232 26 1.68e-006 0.000240991229 0.001381162872 2.933325494541e-007
150	14904568 735 4347971 4977941 0.105461419969 0.12303232 26 1 1 26 26
151	14905303 304 4348002 4977941 0.105462219969 0.12303232 8 2.48e-006 0.000243391229 0.000457270207 9.0110200936118e-008
152	14905607 304 4348002 4977941 0.105462219969 0.12303232 8 2.48e-006 0.000243391229 0.000457270207 9.0110200936118e-008
153	14905911 1752 4348489 5143110 0.105475591908 0.128176107236 46 1.68e-006 1.724499e-006 7.7368998e-005 1.30133393602e-010
154	14907663 1376 4348489 5143110 0.105475591908 0.128176107236 46 1 1 46 46
155	14909039 572 4348590 5143110 0.105477991908 0.128176107236 15 2.48e-006 4.08e-006 5.0044499e-005 1.73886695201e-010
156	14909611 1526 4349562 5069963 0.105506081806 0.126355867011 40 1.68e-006 0.00023641121 0.001942117713 4.031041574933e-007
157	14911137 1152 4349562 5069963 0.105506081806 0.126355867011 40 1 1 40 40
158	14912289 1526 4349562 5069963 0.105506081806 0.126355867011 40 1.68e-006 0.00023641121 0.001942117713 4.031041574933e-007
159	14913815 1152 4349562 5069963 0.105506081806 0.126355867011 40 1 1 40 40
160	14914967 535 4349593 5069963 0.105506881806 0.126355867011 14 2.48e-006 0.00023801121 0.00065350597 1.3053679646093e-007
161	14915502 535 4349593 5069963 0.105506881806 0.126355867011 14 2.48e-006 0.00023801121 0.00065350597 1.3053679646093e-007
162	14916037 1812 4357077 4903636 0.105624356473 0.121249723582 47 1.68e-006 0.000168095619 0.000760260549 1.1324758885293e-007
163	14917849 1392 4357077 4903636 0.105624356473 0.121249723582 47 1 1 47 47
164	14919241 245040 4357077 5028832 0.105624356473 0.12415888 6097 1.68e-006 0.000301290328 0.45266814021199 0.00013158731224238
165	15164281 177100 4357077 5028832 0.105624356473 0.12415888 6097 1 1 6097 6097
166	15341381 156 4357168 4687564 0.10562608 0.11290368 4 0.002713286323 0.003897658004 0.014026013477 5.0094998434584e-005
167	15341537 621 4357168 5062626 0.10562608 0.12603488 16 2.48e-006 0.003897658004 0.020107993902 5.7818855185142e-005
168	15342158 540 4357193 4903636 0.105626756473 0.121249723582 14 2.48e-006 0.000170495619 0.00022314831 2.9304563263312e-008
169	15342698 618 4357193 5028832 0.105626756473 0.12415888 16 2.48e-006 0.002734847051 0.005664085689 1.4831617818922e-005
170	15343316 2157 4364394 4905150 0.10581728 0.121316199645 56 1.68e-006 0.000312966951 0.005663468167 1.6627264592107e-006
171	15345473 1598 4364394 4905150 0.10581728 0.121316199645 56 1 1 56 56
172	15347071 692 4364448 4905150 0.10581888 0.121316199645 18 2.48e-006 0.000315366951 0.001837336724 5.414318157944e-007
173	15347763 731 4364448 4905150 0.10581888 0.121316199645 19 2.48e-006 0.002669193381 0.004506530105 7.6660251209686e-006
174	15348494 498 4364841 4901650 0.105830179694 0.121160213621 13 1.68e-006 0.000124464428 0.000512977712 6.1990976949469e-008
175	15348992 374 4364841 4901650 0.105830179694 0.121160213621 13 1 1 13 13
176	15349366 119390 4364841 4901650 0.105830179694 0.121160213621 2955 1.68e-006 0.000301344594 0.191341679034 5.6370176097345e-005
177	15468756 86154 4364841 4901650 0.105830179694 0.121160213621 2955 1 1 2955 2955
178	15554910 153 4364872 4901650 0.105830979694 0.121160213621 4 2.48e-006 0.000126864428 0.000136704428 1.6128138291767e-008
179	15555063 192 4364872 4901650 0.105830979694 0.121160213621 5 2.48e-006 0.002654144594 0.002790849022 7.0606116641512e-006
180	15555255 118892 4369298 4502889 0.105873615406 0.10852608 2942 1.68e-006 0.000301344594 0.190828701322 5.6308185120395e-005
181	15674147 85780 4369298 4502889 0.105873615406 0.10852608 2942 1 1 2942 2942
182	15759927 1592 4379730 5143423 0.106117688431 0.128182375309 42 1.68e-006 0.000195613962 0.00086420937 1.5329616883774e-007
183	15761519 1212 4379730 5143423 0.106117688431 0.128182375309 42 1 1 42 42
184	15762731 118974 4379730 5143423 0.106117688431 0.128182375309 3131 1.68e-006 0.000195613962 0.0087329293699995 1.7530275443774e-007
185	15881705 93882 4379730 5143423 0.106117688431 0.128182375309 3131 1 1 3131 3131
186	15975587 532 4379771 5143423 0.106118488431 0.128182375309 14 2.48e-006 0.000198013962 0.000245083598 3.9407294832768e-008
187	15976119 571 4379771 5143423 0.106118488431 0.128182375309 15 2.48e-006 0.00247368 0.002718763598 6.1585000372328e-006
188	15976690 849 4393843 5122948 0.106455593049 0.1277732 22 1.68e-006 0.001964934207 0.007217898422 1.1804212198687e-005
189	15977539 610 4393843 5122948 0.106455593049 0.1277732 22 1 1 22 22
190	15978149 224577 4393843 5122948 0.106455593049 0.1277732 5947 1.68e-006 0.002380091211 7.648097898031 0.012606270174945
191	16202726 147313 4393843 5122948 0.106455593049 0.1277732 5947 1 1 5947 5947
192	16350039 310 4393923 5122948 0.106457193049 0.1277732 8 2.508195e-006 0.001966534207 0.002464135985 3.948837956272e-006
193	16350349 386 4393923 5122948 0.106457193049 0.1277732 10 2.508195e-006 0.004796891211 0.011962634485 4.9064114346419e-005
194	16350735 1434 4394298 5062626 0.10646608 0.12603488 37 1.68e-006 0.001440414761 0.018283879681 2.3688818016091e-005
195	16352169 998 4394298 5062626 0.10646608 0.12603488 37 1 1 37 37
196	16353167 465 4394430 5062626 0.10646928 0.12603488 12 2.48e-006 0.001442814761 0.006081980425 7.7238567505581e-006
197	16353632 1572 4398155 4986946 0.106551790213 0.12315248 41 1.68e-006 0.000317455815 0.000704563894 2.0118502746471e-007
198	16355204 1218 4398155 4986946 0.106551790213 0.12315248 41 1 1 41 41
199	16356422 343382 4398155 5059818 0.106551790213 0.12545568 8992 1.68e-006 0.000356698385 1.0198327015621 0.0002383684655705
200	16699804 251260 4398155 5059818 0.106551790213 0.12545568 8992 1 1 8992 8992
201	16951064 611 4398191 4986946 0.106552590213 0.12315248 16 2.48e-006 0.000318255815 0.000365088881 1.0144754541003e-007
202	16951675 727 4398191 5059818 0.106552590213 0.12545568 19 2.48e-006 0.002729498385 0.00835194778 2.1391280639408e-005
203	16952402 341810 4402230 5059818 0.106577301996 0.12545568 8951 1.68e-006 0.000356698385 1.0191281376681 0.00023816728054304
204	17294212 250042 4402230 5059818 0.106577301996 0.12545568 8951 1 1 8951 8951
205	17544254 338576 4417444 5192303 0.106821244767 0.12909336 8797 1.68e-006 0.000304915233 1.3087849151782 0.00039161264825522
206	17882830 246750 4417444 5192303 0.106821244767 0.12909336 8797 1 1 8797 8797
207	18129580 39 4435559 4435559 0.10713728 0.10713728 1 0.002669193381 0.002669193381 0.002669193381 7.1245933051742e-006
208	18129619 117 4444039 4814572 0.10730688 0.11727568 3 0.002693485914 0.002751678873 0.00819443793 2.2385105803852e-005
209	18129736 243228 4495416 5028832 0.108355446619 0.12415888 6050 1.68e-006 0.000301290328 0.45190787966299 0.00013147406465353
210	18372964 175708 4495416 5028832 0.108355446619 0.12415888 6050 1 1 6050 6050
211	18548672 39 4502889 4502889 0.10852608 0.10852608 1 0.002654144594 0.002654144594 0.002654144594 7.0444835258594e-006
212	18548711 116822 4525835 4646039 0.108997411892 0.11173728 3051 1.68e-006 0.000301548108 0.275945087472 8.0426973012327e-005
213	18665533 87994 4525835 4646039 0.108997411892 0.11173728 3051 1 1 3051 3051
214	18753527 116 4540225 5059818 0.10930368 0.12545568 3 0.00252930251 0.002729498385 0.007986858899 2.1289833093998e-005
215	18753643 117 4549256 5192303 0.10944608 0.12909336 3 0.002626515233 0.002676452178 0.007945374266 2.1044292517653e-005
216	18753760 78 4616449 5028832 0.11105984 0.12415888 2 0.002706090328 0.002734847051 0.005440937379 1.4802313255659e-005
217	18753838 116559 4635966 4713414 0.111474901996 0.11422288 3061 1.68e-006 0.000301658004 0.077437178964 2.1938369049921e-005
218	18870397 90866 4635966 4713414 0.111474901996 0.11422288 3061 1 1 3061 3061
219	18961263 39 4646039 4646039 0.11173728 0.11173728 1 0.002741548108 0.002741548108 0.002741548108 7.5160860284784e-006
220	18961302 117382 4713196 4795884 0.114213444691 0.116685444691 3089 1.68e-006 3.28e-006 0.0078687199999995 2.2006585600001e-008
221	19078684 92670 4713196 4795884 0.114213444691 0.116685444691 3089 1 1 3089 3089
222	19171354 39 4713414 4713414 0.11422288 0.11422288 1 0.002749658004 0.002749658004 0.002749658004 7.5606191389613e-006
223	19171393 124682 4746150 5194851 0.11546082529 0.12914848 3319 1.68e-006 0.00030141471 0.48448510952401 0.0001451441943056
224	19296075 91590 4746150 5194851 0.11546082529 0.12914848 3319 1 1 3319 3319
225	19387665 116388 4746171 4838026 0.115461484987 0.11818048 3025 1.68e-006 0.000301475013 0.436187228694 0.0001307002489691
226	19504053 84998 4746171 4838026 0.115461484987 0.11818048 3025 1 1 3025 3025
227	19589051 39 4795884 4795884 0.116685444691 0.116685444691 1 0.00247368 0.00247368 0.00247368 6.1190927424e-006
228	19589090 115938 4803776 4865387 0.11703656 0.11947656 3051 3.296273e-005 3.296273e-005 0.10056928923 3.3150383271804e-006
229	19705028 79326 4803776 4865387 0.11703656 0.11947656 3051 1 1 3051 3051
230	19784354 39 4838026 4838026 0.11818048 0.11818048 1 0.002720675013 0.002720675013 0.002720675013 7.4020725263626e-006
231	19784393 38 4838163 4838163 0.11819016 0.11819016 1 0.00273101471 0.00273101471 0.00273101471 7.4584413462364e-006
232	19784431 347886 4842890 5194863 0.118341449442 0.129148721606 8921 1.68e-006 0.000837453342 1.679482606599 0.00072947495297919
233	20132317 257074 4842890 5194863 0.118341449442 0.129148721606 8921 1 1 8921 8921
234	20389391 38 4865387 4865387 0.11947656 0.11947656 1 0.00247296273 0.00247296273 0.00247296273 6.1155446639691e-006
235	20389429 117163 4875888 4979036 0.120272348587 0.12303728 3083 1.68e-006 0.000301011413 0.012243822717 8.4931783840631e-007
236	20506592 92454 4875888 4979036 0.120272348587 0.12303728 3083 1 1 3083 3083
237	20599046 78 4900494 5026096 0.12110368 0.12406768 2 0.002668602109 0.002763910558 0.005432512667 1.4760638788783e-005
238	20599124 223728 4977774 5122852 0.1230316 0.1277708 5925 0.000154407289 0.002380091211 7.640879999609 0.012594465962746
239	20822852 146703 4977774 5122852 0.1230316 0.1277708 5925 1 1 5925 5925
240	20969555 39 4979036 4979036 0.12303728 0.12303728 1 0.002766611413 0.002766611413 0.002766611413 7.6541387105419e-006
241	20969594 114000 5065690 5161029 0.126049161582 0.128448361582 3000 1.68e-006 1.68e-006 0.0050400000000003 8.4671999999996e-009
242	21083594 90000 5065690 5161029 0.126049161582 0.128448361582 3000 1 1 3000 3000
243	21173594 76 5115172 5122852 0.1275788 0.1277708 2 0.004701607289 0.004796891211 0.0094984985 4.5115276390147e-005
244	21173670 42670 5132508 5194852 0.127954123343 0.12914848 1119 1.68e-006 0.000301636657 0.053085505236 1.3542486851628e-005
245	21216340 32978 5132508 5194852 0.127954123343 0.12914848 1119 1 1 1119 1119
246	21249318 30244 5147977 5194853 0.128216329041 0.12914848 792 1.68e-006 0.000301030959 0.045634501932 1.3413524090516e-005
247	21279562 23168 5147977 5194853 0.128216329041 0.12914848 792 1 1 792 792
248	21302730 39 5161029 5161029 0.128448361582 0.128448361582 1 0.00240088 0.00240088 0.00240088 5.7642247744e-006
vector 249 Network.rack[0].Server[6].app e_Latency ETV
vector 250 Network.rack[0].Server[6].app e_packet ETV
vector 251 Network.rack[0].Server[1].app e_FCT ETV
vector 252 Network.rack[1].Server[5].app e_Latency ETV
vector 253 Network.rack[1].Server[5].app e_packet ETV
vector 254 Network.rack[2].Server[4].app e_FCT ETV
vector 255 Network.rack[0].Server[6].app e_FCT ETV
vector 256 Network.rack[1].Server[5].app e_FCT ETV
vector 257 Network.rack[0].Server[8].app e_Latency ETV
vector 258 Network.rack[0].Server[8].app e_packet ETV
vector 259 Network.rack[0].Server[8].app e_FCT ETV
vector 260 Network.rack[2].Server[7].app e_Latency ETV
vector 261 Network.rack[2].Server[7].app e_packet ETV
vector 262 Network.rack[0].Server[7].app e_Latency ETV
vector 263 Network.rack[0].Server[7].app e_packet ETV
27	21303584 935734 5194874 5752917 0.129149129041 0.1403657646 32768 1 1 32768 32768
28	22239318 1177865 5194874 5752917 0.129149129041 0.1403657646 32768 8.8e-007 0.000300685603 0.31637575447298 5.4832395083668e-005
vector 264 Network.rack[2].Server[7].app e_FCT ETV
vector 265 Network.rack[0].Server[7].app e_FCT ETV
vector 266 Network.rack[1].Server[0].app e_Latency ETV
vector 267 Network.rack[1].Server[0].app e_packet ETV
0	23417398 898761 5194877 5864142 0.129149197162 0.1440424 32768 1 1 32768 32768
1	24316159 1154528 5194877 5864142 0.129149197162 0.1440424 32768 8.8e-007 0.000300753624 0.74267298789881 0.00015204772168424
vector 268 Network.rack[1].Server[0].app e_FCT ETV
0	25470739 561182 5864144 6166675 0.1440424 0.14958237567 20589 1 1 20589 20589
1	26031921 723096 5864144 6166675 0.1440424 0.14958237567 20589 8.8e-007 0.000300474995 0.42753222475689 7.6868451731625e-005
4	26755017 1296 5234895 5790385 0.130178434809 0.142586226038 36 1.68e-006 1.68e-006 6.048e-005 1.016064e-010
5	26756313 1008 5234895 5790385 0.130178434809 0.142586226038 36 1 1 36 36
6	26757321 93240 6026027 6166677 0.14745197567 0.14958237567 2664 1.68e-006 1.68e-006 0.0044755200000001 7.5188735999997e-009
7	26850561 71928 6026027 6166677 0.14745197567 0.14958237567 2664 1 1 2664 2664
8	26922489 94030 5293580 6166677 0.13131805267 0.14958237567 2686 1.68e-006 1.68e-006 0.0045124800000002 7.5809663999997e-009
9	27016519 72542 5293580 6166677 0.13131805267 0.14958237567 2686 1 1 2686 2686
10	27089061 119283 5785075 5928785 0.142339806376 0.14504128 3003 1.68e-006 0.000301553624 0.38521062598799 0.00011495266422864
11	27208344 82031 5785075 5928785 0.142339806376 0.14504128 3003 1 1 3003 3003
12	27290375 120959 5238480 6000771 0.13027913687 0.14705928 3048 1.68e-006 0.000301553624 0.38632508092899 0.00011508271315709
13	27411334 83285 5238480 6000771 0.13027913687 0.14705928 3048 1 1 3048 3048
14	27494619 132 5321844 5995618 0.13203 0.14703 6 0 0 0 0
16	27494751 444 5234961 5790385 0.130180034809 0.142586226038 12 2.48e-006 4.08e-006 3.936e-005 1.342208e-010
17	27495195 38 5928785 5928785 0.14504128 0.14504128 1 0.002703153624 0.002703153624 0.002703153624 7.3070395149443e-006
18	27495233 560 5238546 6000771 0.13028073687 0.14705928 15 3.28e-006 0.002703153624 0.003104811705 7.3582518004601e-006
20	27495793 295 5293623 5908427 0.13131885267 0.144787532282 8 2.48e-006 4.08e-006 2.464e-005 7.94112e-011
21	27496088 740 5391153 6004952 0.133292550723 0.147147120266 20 1.68e-006 1.68e-006 3.36e-005 5.6448e-011
22	27496828 580 5391153 6004952 0.133292550723 0.147147120266 20 1 1 20 20
23	27497408 740 5391153 6004952 0.133292550723 0.147147120266 20 1.68e-006 1.68e-006 3.36e-005 5.6448e-011
24	27498148 580 5391153 6004952 0.133292550723 0.147147120266 20 1 1 20 20
25	27498728 222 5391273 6004952 0.133294950723 0.147147120266 6 3.28e-006 4.08e-006 2.128e-005 7.63264e-011
26	27498950 222 5391273 6004952 0.133294950723 0.147147120266 6 3.28e-006 4.08e-006 2.128e-005 7.63264e-011
27	27499172 596891 5752932 6166691 0.140365991798 0.149582679873 20849 1 1 20849 20849
28	28096063 754426 5752932 6166691 0.140365991798 0.149582679873 20849 8.8e-007 0.000300726739 0.26797741799686 5.0343307344868e-005
29	28850489 812 5293580 5908427 0.13131805267 0.144787532282 22 1.68e-006 1.68e-006 3.696e-005 6.20928e-011
30	28851301 636 5293580 5908427 0.13131805267 0.144787532282 22 1 1 22 22
31	28851937 295 5293623 5908427 0.13131885267 0.144787532282 8 2.48e-006 4.08e-006 2.464e-005 7.94112e-011
32	28852232 1225 5261369 6025994 0.13068613484 0.147451479873 33 1.68e-006 3.242457e-006 5.7764914e-005 1.039735235937e-010
33	28853457 953 5261369 6025994 0.13068613484 0.147451479873 33 1 1 33 33
34	28854410 214283 5261369 6166653 0.13068613484 0.149581879873 5740 1.68e-006 0.000300908504 0.58214205401013 0.00017197870542204
35	29068693 158860 5261369 6166653 0.13068613484 0.149581879873 5740 1 1 5740 5740
36	29227553 410 5261479 6025994 0.13068853484 0.147451479873 11 2.48e-006 4.08e-006 3.7642457e-005 1.3237345859685e-010
37	29227963 448 5261479 6025994 0.13068853484 0.147451479873 12 2.48e-006 0.002650508504 0.002688150961 7.0253277032349e-006
38	29228411 1213 5216359 5801565 0.129668721606 0.142773643422 31 1.68e-006 0.001159043929 0.01125994845 9.9892979062098e-006
39	29229624 863 5216359 5801565 0.129668721606 0.142773643422 31 1 1 31 31
40	29230487 352748 5194900 5944300 0.129149521606 0.14538776 9132 1.68e-006 0.001787853342 5.648562077244 0.0068639277935653
41	29583235 247780 5194900 5944300 0.129149521606 0.14538776 9132 1 1 9132 9132
42	29831015 429 5216551 5801565 0.129673521606 0.142773643422 11 2.48e-006 0.001161443929 0.003482060406 2.9255228959898e-006
43	29831444 585 5216551 5944300 0.129673521606 0.14538776 15 2.48e-006 0.00420408 0.01725009416 5.240161619434e-005
44	29832029 888 5235433 6007567 0.130193502611 0.147209877951 24 1.68e-006 1.68e-006 4.032e-005 6.77376e-011
45	29832917 696 5235433 6007567 0.130193502611 0.147209877951 24 1 1 24 24
46	29833613 888 5235433 6007567 0.130193502611 0.147209877951 24 1.68e-006 1.68e-006 4.032e-005 6.77376e-011
47	29834501 696 5235433 6007567 0.130193502611 0.147209877951 24 1 1 24 24
48	29835197 296 5235499 6007567 0.130195102611 0.147209877951 8 2.48e-006 4.08e-006 2.624e-005 8.99072e-011
49	29835493 296 5235499 6007567 0.130195102611 0.147209877951 8 2.48e-006 4.08e-006 2.624e-005 8.99072e-011
50	29835789 626 5239373 6016061 0.13030416049 0.147368802675 17 1.68e-006 1.68e-006 2.856e-005 4.79808e-011
51	29836415 490 5239373 6016061 0.13030416049 0.147368802675 17 1 1 17 17
52	29836905 114193 5239373 6016061 0.13030416049 0.147368802675 3034 1.68e-006 0.000301432286 0.58601705026799 0.00017609253120809
53	29951098 80231 5239373 6016061 0.13030416049 0.147368802675 3034 1 1 3034 3034
54	30031329 221 5239439 6016061 0.13030576049 0.147368802675 6 2.48e-006 4.08e-006 1.888e-005 6.25024e-011
55	30031550 259 5239439 6016061 0.13030576049 0.147368802675 7 2.48e-006 0.002714232286 0.002733112286 7.3671194047648e-006
56	30031809 1085 5246294 5791771 0.130416494997 0.142648640317 29 1.68e-006 1.731028e-006 4.8873084e-005 8.2371773810352e-011
57	30032894 841 5246294 5791771 0.130416494997 0.142648640317 29 1 1 29 29
58	30033735 1085 5246294 5791771 0.130416494997 0.142648640317 29 1.68e-006 1.731028e-006 4.8873084e-005 8.2371773810352e-011
59	30034820 841 5246294 5791771 0.130416494997 0.142648640317 29 1 1 29 29
60	30035661 374 5246404 5791771 0.130418894997 0.142648640317 10 2.48e-006 4.08e-006 3.2051028e-005 1.0843334753678e-010
61	30036035 374 5246404 5791771 0.130418894997 0.142648640317 10 2.48e-006 4.08e-006 3.2051028e-005 1.0843334753678e-010
62	30036409 910 5368263 6074715 0.13277968 0.148171314613 24 1.68e-006 0.000304118665 0.001852371434 5.4943641649466e-007
63	30037319 672 5368263 6074715 0.13277968 0.148171314613 24 1 1 24 24
64	30037991 344236 5243988 6074715 0.130356244163 0.148171314613 9184 1.68e-006 0.000304726739 1.3433702399059 0.00040198047667626
65	30382227 248688 5243988 6074715 0.130356244163 0.148171314613 9184 1 1 9184 9184
66	30630915 339 5368349 6074715 0.13278128 0.148171314613 9 2.48e-006 0.000306518665 0.000633050963 1.8592735588253e-007
67	30631254 453 5368349 6074715 0.13278128 0.148171314613 12 2.48e-006 0.002783926739 0.008867061741 2.2788953100717e-005
68	30631707 111036 5460224 5610152 0.13503144 0.13736824 2922 0.000185034647 0.000185034647 0.54067123853399 0.0001000429117652
69	30742743 73050 5460224 5610152 0.13503144 0.13736824 2922 1 1 2922 2922
70	30815793 111996 5229191 5907793 0.130019202282 0.14477339748 2948 1.68e-006 0.000185034647 0.54071491853399 0.0001000429851476
71	30927789 73802 5229191 5907793 0.130019202282 0.14477339748 2948 1 1 2948 2948
72	31001591 1045 5258100 6016571 0.130603901095 0.147381136125 28 1.68e-006 0.000231837801 0.002085147021 4.6851967771759e-007
73	31002636 776 5258100 6016571 0.130603901095 0.147381136125 28 1 1 28 28
74	31003412 229004 5258100 6016571 0.130603901095 0.147381136125 6056 1.68e-006 0.000301481743 1.3661820487379 0.00038324330088705
75	31232416 155896 5258100 6016571 0.130603901095 0.147381136125 6056 1 1 6056 6056
76	31388312 373 5258178 6016571 0.130605501095 0.147381136125 10 2.48e-006 0.000233437801 0.000712969007 1.5952260673946e-007
77	31388685 449 5258178 6016571 0.130605501095 0.147381136125 12 2.48e-006 0.002761481743 0.006136716057 1.4872960588518e-005
78	31389134 1489 5246127 5974783 0.13041248 0.146285166421 40 1.68e-006 0.000310002323 0.003714701268 1.1211455738895e-006
79	31390623 1109 5246127 5974783 0.13041248 0.146285166421 40 1 1 40 40
80	31391732 200305 5194890 5974783 0.12914928 0.146285166421 5272 1.68e-006 0.000310630959 1.0486097390519 0.00024980394590463
81	31592037 131909 5194890 5974783 0.12914928 0.146285166421 5272 1 1 5272 5272
82	31723946 483 5246327 5974783 0.13041728 0.146285166421 13 2.48e-006 0.000312402323 0.000958915317 2.8700711495478e-007
83	31724429 559 5246327 5974783 0.13041728 0.146285166421 15 2.48e-006 0.002693830959 0.006212744469 1.4097323098785e-005
84	31724988 1437 5227788 6002968 0.129980537254 0.147098517154 39 1.68e-006 1.68e-006 6.552e-005 1.100736e-010
85	31726425 1125 5227788 6002968 0.129980537254 0.147098517154 39 1 1 39 39
86	31727550 113009 5227788 6002968 0.129980537254 0.147098517154 2992 1.68e-006 0.000301121034 0.69703478957402 0.00020954925207231
87	31840559 77518 5227788 6002968 0.129980537254 0.147098517154 2992 1 1 2992 2992
88	31918077 479 5227889 6002968 0.129982937254 0.147098517154 13 2.48e-006 4.08e-006 4.264e-005 1.436992e-010
89	31918556 517 5227889 6002968 0.129982937254 0.147098517154 14 2.48e-006 0.002662721034 0.002705361034 7.090227004106e-006
90	31919073 1332 5234895 5790385 0.130178434809 0.142586226038 36 1.68e-006 1.68e-006 6.048e-005 1.016064e-010
91	31920405 1044 5234895 5790385 0.130178434809 0.142586226038 36 1 1 36 36
92	31921449 444 5234961 5790385 0.130180034809 0.142586226038 12 2.48e-006 4.08e-006 3.936e-005 1.342208e-010
93	31921893 970 5230048 5982614 0.130043376222 0.146539210828 26 1.68e-006 0.000214614239 0.001628980972 3.2129363561247e-007
94	31922863 722 5230048 5982614 0.130043376222 0.146539210828 26 1 1 26 26
95	31923585 223517 5230048 5982614 0.130043376222 0.146539210828 5969 1.68e-006 0.000304271222 0.80826258986702 0.00024196540666362
96	32147102 162445 5230048 5982614 0.130043376222 0.146539210828 5969 1 1 5969 5969
97	32309547 335 5230079 5982614 0.130044176222 0.146539210828 9 2.48e-006 0.000217014239 0.000425445243 8.2453458872717e-008
98	32309882 411 5230079 5982614 0.130044176222 0.146539210828 11 2.48e-006 0.002703085603 0.005784002068 1.4440652646889e-005
99	32310293 1077 5244936 6010617 0.13038128 0.147292705056 29 1.68e-006 0.000305436941 0.00185967562 5.5276996915949e-007
100	32311370 844 5244936 6010617 0.13038128 0.147292705056 29 1 1 29 29
101	32312214 105782 5194888 6010617 0.12914928 0.147292705056 2713 1.68e-006 0.000305762838 0.81286713281201 0.00024561777870426
102	32417996 70628 5194888 6010617 0.12914928 0.147292705056 2713 1 1 2713 2713
103	32488624 343 5244996 6010617 0.13038288 0.147292705056 9 2.48e-006 0.000307836941 0.000635640869 1.8680882691311e-007
104	32488967 382 5244996 6010617 0.13038288 0.147292705056 10 2.48e-006 0.002676962838 0.003312603707 7.3529388629461e-006
105	32489349 1363 5240688 5914498 0.13034618628 0.144845991383 36 1.68e-006 6.2820421e-005 0.000182760842 7.9887721892345e-009
106	32490712 1065 5240688 5914498 0.13034618628 0.144845991383 36 1 1 36 36
107	32491777 114295 5240688 6095914 0.13034618628 0.14839488 2963 1.68e-006 0.000301274995 0.51620918231199 0.00015485929309909
108	32606072 82051 5240688 6095914 0.13034618628 0.14839488 2963 1 1 2963 2963
109	32688123 416 5240774 5914498 0.13034858628 0.144845991383 11 2.48e-006 6.3620421e-005 9.9620421e-005 4.1799739682172e-009
110	32688539 455 5240774 6095914 0.13034858628 0.14839488 12 2.48e-006 0.002642074995 0.002741695416 6.9847402531725e-006
111	32688994 1745 5232072 6016461 0.130100845544 0.147378736125 46 1.68e-006 1.68e-006 7.728e-005 1.298304e-010
112	32690739 1377 5232072 6016461 0.130100845544 0.147378736125 46 1 1 46 46
113	32692116 106169 5232072 6166669 0.130100845544 0.149582246101 2794 1.68e-006 1.68e-006 0.0046939200000002 7.8857855999997e-009
114	32798285 83817 5232072 6166669 0.130100845544 0.149582246101 2794 1 1 2794 2794
115	32882102 645 5232138 6016461 0.130102445544 0.147378736125 17 2.48e-006 4.08e-006 5.176e-005 1.649728e-010
116	32882747 645 5232138 6016461 0.130102445544 0.147378736125 17 2.48e-006 4.08e-006 5.176e-005 1.649728e-010
117	32883392 523 5231784 6022481 0.13009320725 0.147439151711 14 1.68e-006 1.68e-006 2.352e-005 3.95136e-011
118	32883915 411 5231784 6022481 0.13009320725 0.147439151711 14 1 1 14 14
119	32884326 180785 5231784 6166661 0.13009320725 0.149582096843 4744 1.68e-006 0.000300968202 0.16419836144401 4.7295646369891e-005
120	33065111 140223 5231784 6166661 0.13009320725 0.149582096843 4744 1 1 4744 4744
121	33205334 225 5231850 6022481 0.13009480725 0.147439151711 6 2.48e-006 3.28e-006 1.648e-005 4.61184e-011
122	33205559 264 5231850 6022481 0.13009480725 0.147439151711 7 2.48e-006 0.002675368202 0.002691848202 7.1576411346727e-006
123	33205823 827 5239134 6007580 0.13029728 0.147210036801 21 1.68e-006 0.000305330842 0.00155374653 4.6165096946366e-007
124	33206650 610 5239134 6007580 0.13029728 0.147210036801 21 1 1 21 21
125	33207260 299885 5194889 6007580 0.12914928 0.147210036801 7806 1.68e-006 0.000305636657 0.99205479556307 0.00029461246577981
126	33507145 221248 5194889 6007580 0.12914928 0.147210036801 7806 1 1 7806 7806
127	33728393 276 5239188 6007580 0.13029888 0.147210036801 7 3.28e-006 0.000306930842 0.000632004626 1.8670609717382e-007
128	33728669 393 5239188 6007580 0.13029888 0.147210036801 10 3.28e-006 0.002683890866 0.008660921217 2.1674642823344e-005
131	33729062 1491 5233974 6006901 0.130153890859 0.147194527721 39 1.68e-006 0.000226436896 0.001512724162 3.0580916082832e-007
132	33730553 1132 5233974 6006901 0.130153890859 0.147194527721 39 1 1 39 39
133	33731685 228490 5297931 5640011 0.131347074397 0.13813968 5943 1.68e-006 0.000304271222 0.80663360889502 0.00024164411302801
134	33960175 167666 5297931 5640011 0.131347074397 0.13813968 5943 1 1 5943 5943
135	34127841 696 5391313 6011167 0.133295750723 0.147307860559 18 1.68e-006 1.714256e-006 3.0377024e-005 5.1268294534144e-011
136	34128537 536 5391313 6011167 0.133295750723 0.147307860559 18 1 1 18 18
137	34129073 696 5391313 6011167 0.133295750723 0.147307860559 18 1.68e-006 1.714256e-006 3.0377024e-005 5.1268294534144e-011
138	34129769 536 5391313 6011167 0.133295750723 0.147307860559 18 1 1 18 18
139	34130305 231 5391349 6011167 0.133296550723 0.147307860559 6 2.48e-006 4.114256e-006 1.9714256e-005 6.8671102433536e-011
140	34130536 231 5391349 6011167 0.133296550723 0.147307860559 6 2.48e-006 4.114256e-006 1.9714256e-005 6.8671102433536e-011
141	34130767 2190 5228786 6026215 0.130008826192 0.147454902657 57 1.68e-006 0.000219900835 0.001104679268 1.4528181654589e-007
142	34132957 1660 5228786 6026215 0.130008826192 0.147454902657 57 1 1 57 57
143	34134617 118995 5228786 6026215 0.130008826192 0.147454902657 3052 1.68e-006 0.000219900835 0.27287224016299 2.4805584706302e-005
144	34253612 79530 5228786 6026215 0.130008826192 0.147454902657 3052 1 1 3052 3052
145	34333142 692 5228887 6026215 0.130011226192 0.147454902657 18 2.48e-006 0.000220700835 0.000422804985 6.1710898792977e-008
146	34333834 731 5228887 6026215 0.130011226192 0.147454902657 19 2.48e-006 0.002485940421 0.002908745406 6.2416106755546e-006
147	34334565 722 5246076 6021106 0.130411507604 0.147411281238 19 1.68e-006 1.68e-006 3.192e-005 5.36256e-011
148	34335287 570 5246076 6021106 0.130411507604 0.147411281238 19 1 1 19 19
149	34335857 722 5246076 6021106 0.130411507604 0.147411281238 19 1.68e-006 1.68e-006 3.192e-005 5.36256e-011
150	34336579 570 5246076 6021106 0.130411507604 0.147411281238 19 1 1 19 19
151	34337149 228 5246110 6021106 0.130412307604 0.147411281238 6 2.48e-006 4.08e-006 2.048e-005 7.29984e-011
152	34337377 228 5246110 6021106 0.130412307604 0.147411281238 6 2.48e-006 4.08e-006 2.048e-005 7.29984e-011
153	34337605 1721 5238480 6000771 0.13027913687 0.14705928 45 1.68e-006 0.000186855268 0.001114454941 1.3004892845444e-007
154	34339326 1299 5238480 6000771 0.13027913687 0.14705928 45 1 1 45 45
155	34340625 536 5238546 6000771 0.13028073687 0.14705928 14 3.28e-006 0.000187655268 0.000401658081 5.1212285515778e-008
156	34341161 608 5349739 5975588 0.132471728412 0.146310766812 16 1.68e-006 1.68e-006 2.688e-005 4.51584e-011
157	34341769 480 5349739 5975588 0.132471728412 0.146310766812 16 1 1 16 16
158	34342249 219894 5349739 6166687 0.132471728412 0.149582674267 5745 1.68e-006 1.74012e-006 0.0097679322000009 1.6612558083863e-008
159	34562143 168129 5349739 6166687 0.132471728412 0.149582674267 5745 1 1 5745 5745
160	34730272 228 5349831 5975588 0.132473328412 0.146310766812 6 2.48e-006 4.08e-006 1.808e-005 5.66144e-011
161	34730500 269 5349831 5975588 0.132473328412 0.146310766812 7 2.48e-006 0.00246334012 0.00248142012 6.0681011612016e-006
162	34730769 768 5229034 5790122 0.130015003343 0.142577099435 20 1.68e-006 1.725681e-006 3.3691362e-005 5.6759149827522e-011
163	34731537 600 5229034 5790122 0.130015003343 0.142577099435 20 1 1 20 20
164	34732137 116879 5229034 6034503 0.130015003343 0.14753328 3059 1.68e-006 0.000301133343 0.193495364109 5.7045390320688e-005
165	34849016 89254 5229034 6034503 0.130015003343 0.14753328 3059 1 1 3059 3059
166	34938270 39 5610152 5610152 0.13736824 0.13736824 1 0.002521834647 0.002521834647 0.002521834647 6.3596499868096e-006
167	34938309 380 5229226 5907793 0.130020002282 0.14477339748 10 2.48e-006 0.002521834647 0.002550554647 6.3597460444096e-006
168	34938689 232 5229065 5790122 0.130015803343 0.142577099435 6 2.525681e-006 4.08e-006 2.1325681e-005 7.7835064513761e-011
169	34938921 271 5229065 6034503 0.130015803343 0.14753328 7 2.525681e-006 0.002731533343 0.002752859024 7.4613522389853e-006
170	34939192 1491 5233974 6006901 0.130153890859 0.147194527721 39 1.68e-006 0.000226436896 0.001512724162 3.0580916082832e-007
171	34940683 1132 5233974 6006901 0.130153890859 0.147194527721 39 1 1 39 39
172	34941815 459 5234005 6006901 0.130154690859 0.147194527721 12 2.48e-006 0.000228036896 0.000459764725 9.1038576497512e-008
173	34942274 459 5234005 6006901 0.130154690859 0.147194527721 12 2.48e-006 0.000228036896 0.000459764725 9.1038576497512e-008
174	34942733 1246 5235948 6149089 0.130207758263 0.14924288 32 1.68e-006 0.00185244197 0.006022022026 1.0323006871964e-005
175	34943979 924 5235948 6149089 0.130207758263 0.14924288 32 1 1 32 32
176	34944903 352081 5235948 6149089 0.130207758263 0.14924288 9036 1.68e-006 0.001911378122 8.664417445299 0.013016583646415
177	35296984 244992 5235948 6149089 0.130207758263 0.14924288 9036 1 1 9036 9036
178	35541976 428 5236049 6149089 0.130210158263 0.14924288 11 2.48e-006 0.00185404197 0.002021755078 3.4469828679528e-006
179	35542404 545 5236049 6149089 0.130210158263 0.14924288 14 2.48e-006 0.004362291758 0.013990745609 5.1930215001449e-005
180	35542949 350835 5778562 6148951 0.142029239349 0.14924048 9004 1.68e-006 0.001911378122 8.658395423273 0.013006260639543
181	35893784 244068 5778562 6148951 0.142029239349 0.14924048 9004 1 1 9004 9004
182	36137852 1414 5236955 6033800 0.130235694992 0.14752288 37 1.68e-006 0.00030388995 0.001266242278 3.6658130615228e-007
183	36139266 1094 5236955 6033800 0.130235694992 0.14752288 37 1 1 37 37
184	36140360 117162 5236955 6157776 0.130235694992 0.14940448 3005 1.68e-006 0.000304137343 0.90078244693007 0.00027335309966783
185	36257522 78278 5236955 6157776 0.130235694992 0.14940448 3005 1 1 3005 3005
186	36335800 460 5237056 6033800 0.130238094992 0.14752288 12 2.48e-006 0.00030628995 0.000342391189 9.3937101667538e-008
187	36336260 499 5237056 6157776 0.130238094992 0.14940448 13 2.48e-006 0.002677737343 0.003020128532 7.2642143797642e-006
188	36336759 761 5250394 5918500 0.130444127896 0.144919329675 19 1.68e-006 5.6740421e-005 0.000228963322 9.9524538297637e-009
189	36337520 558 5250394 5918500 0.130444127896 0.144919329675 19 1 1 19 19
190	36338078 228470 5250128 5918500 0.130439327896 0.144919329675 5951 1.68e-006 0.000301323375 0.70729232414099 0.00020830766189759
191	36566548 169346 5250128 5918500 0.130439327896 0.144919329675 5951 1 1 5951 5951
192	36735894 280 5250480 5918500 0.130445727896 0.144919329675 7 2.48e-006 5.8340421e-005 8.8084343e-005 3.6018185065898e-009
193	36736174 358 5250480 5918500 0.130445727896 0.144919329675 9 2.48e-006 0.002685323375 0.005434719822 1.4297145561725e-005
194	36736532 986 5229191 5907793 0.130019202282 0.14477339748 26 1.68e-006 1.68e-006 4.368e-005 7.33824e-011
195	36737518 778 5229191 5907793 0.130019202282 0.14477339748 26 1 1 26 26
196	36738296 341 5229226 5907793 0.130020002282 0.14477339748 9 2.48e-006 4.08e-006 2.872e-005 9.60576e-011
197	36738637 1375 5234343 6001522 0.130164040803 0.1470636 36 1.68e-006 0.000292980421 0.001962420648 4.5654875603227e-007
198	36740012 1032 5234343 6001522 0.130164040803 0.1470636 36 1 1 36 36
199	36741044 117067 5234343 6001522 0.130164040803 0.1470636 3073 1.68e-006 0.000304180421 0.093570101054 2.6920858150994e-005
200	36858111 90998 5234343 6001522 0.130164040803 0.1470636 3073 1 1 3073 3073
201	36949109 458 5234409 6001522 0.130165640803 0.1470636 12 2.48e-006 0.000295380421 0.000522109336 1.1697609166432e-007
202	36949567 497 5234409 6001522 0.130165640803 0.1470636 13 2.48e-006 0.002732980421 0.003255089757 7.5861580732337e-006
203	36950064 115692 5494410 5649479 0.135530859579 0.13826216 3037 1.68e-006 0.000304180421 0.091607680406 2.6464309394962e-005
204	37065756 89966 5494410 5649479 0.135530859579 0.13826216 3037 1 1 3037 3037
208	37155722 78 5424187 5640011 0.13404848 0.13813968 2 0.002655471222 0.002703085603 0.005358556825 1.4358199188016e-005
209	37155800 116111 5912179 6034503 0.144803426657 0.14753328 3039 1.68e-006 0.000301133343 0.193461672747 5.7045333561538e-005
210	37271911 88654 5912179 6034503 0.144803426657 0.14753328 3039 1 1 3039 3039
211	37360565 117 5941745 6148951 0.14531968 0.14924048 3 0.003292120651 0.004362291758 0.011968990531 4.8483232133496e-005
214	37360682 39 5649479 5649479 0.13826216 0.13826216 1 0.002732980421 0.002732980421 0.002732980421 7.4691819815693e-006
216	37360721 39 6034503 6034503 0.14753328 0.14753328 1 0.002731533343 0.002731533343 0.002731533343 7.4612744039208e-006
217	37360760 114525 5288834 5418303 0.131217838966 0.13387888 2953 1.68e-006 0.000301121034 0.69696926957402 0.00020954914199871
218	37475285 79346 5288834 5418303 0.131217838966 0.13387888 2953 1 1 2953 2953
220	37554631 115748 5991381 6157776 0.146728422657 0.14940448 2968 1.68e-006 0.000304137343 0.89951620465207 0.00027298651836168
221	37670379 77184 5991381 6157776 0.146728422657 0.14940448 2968 1 1 2968 2968
222	37747563 39 5418303 5418303 0.13387888 0.13387888 1 0.002662721034 0.002662721034 0.002662721034 7.090083304906e-006
223	37747602 104676 5194888 5292795 0.12914928 0.13130048 2684 0.000300962838 0.000305762838 0.81100745719201 0.00024506500873511
224	37852278 69784 5194888 5292795 0.12914928 0.13130048 2684 1 1 2684 2684
225	37922062 104424 6019765 6166669 0.147384646101 0.149582246101 2748 1.68e-006 1.68e-006 0.0046166400000002 7.7559551999997e-009
226	38026486 82440 6019765 6166669 0.147384646101 0.149582246101 2748 1 1 2748 2748
227	38108926 39 6157776 6157776 0.14940448 0.14940448 1 0.002677737343 0.002677737343 0.002677737343 7.1702772780967e-006
228	38108965 180262 5672650 6166661 0.138773991798 0.149582096843 4730 1.68e-006 0.000300968202 0.16417484144401 4.7295606856291e-005
229	38289227 139812 5672650 6166661 0.138773991798 0.149582096843 4730 1 1 4730 4730
231	38429039 39 5292795 5292795 0.13130048 0.13130048 1 0.002676962838 0.002676962838 0.002676962838 7.166130036033e-006
232	38429078 360636 5194900 5944300 0.129149521606 0.14538776 9101 1.68e-006 0.001787853342 5.637302128794 0.0068539384956591
233	38789714 256018 5194900 5944300 0.129149521606 0.14538776 9101 1 1 9101 9101
234	39045732 39 5773823 5773823 0.14144768 0.14144768 1 0.002675368202 0.002675368202 0.002675368202 7.1575950162727e-006
237	39045771 160 5279317 5944300 0.131046321606 0.14538776 4 0.002661396578 0.00420408 0.013768033754 4.947609329835e-005
238	39045931 227709 5250128 5775428 0.130439327896 0.14179568 5932 1.68e-006 0.000301323375 0.70706336081899 0.00020829770944376
239	39273640 168788 5250128 5775428 0.130439327896 0.14179568 5932 1 1 5932 5932
241	39442428 112932 5957958 6095914 0.145754485005 0.14839488 2927 1.68e-006 0.000301274995 0.51602642146999 0.0001548513043269
242	39555360 80986 5957958 6095914 0.145754485005 0.14839488 2927 1 1 2927 2927
243	39636346 78 5383389 5775428 0.13309896 0.14179568 2 0.002661312104 0.002685323375 0.005346635479 1.4293543743218e-005
244	39636424 299058 5194889 5670375 0.12914928 0.13871728 7785 1.68e-006 0.000305636657 0.99050104903307 0.00029415081481035
245	39935482 220638 5194889 5670375 0.12914928 0.13871728 7785 1 1 7785 7785
246	40156120 204048 5194890 5756718 0.12914928 0.14046592 5232 0.000125598193 0.000310630959 1.0448950377839 0.00024868280033074
247	40360168 136032 5194890 5756718 0.12914928 0.14046592 5232 1 1 5232 5232
248	40496200 39 6095914 6095914 0.14839488 0.14839488 1 0.002642074995 0.002642074995 0.002642074995 6.9805602792042e-006
249	40496239 352486 5243988 5947863 0.130356244163 0.14549328 9160 1.68e-006 0.000304726739 1.3415178684719 0.00040143104025977
250	40848725 257176 5243988 5947863 0.130356244163 0.14549328 9160 1 1 9160 9160
251	41105901 117 5258870 5670375 0.13062208 0.13871728 3 0.002669636657 0.002683890866 0.008028916591 2.148793672617e-005
252	41106018 233987 5270561 5526555 0.130847078257 0.13604528 6028 1.68e-006 0.000301481743 1.3640969017169 0.00038277478120934
253	41340005 161148 5270561 5526555 0.130847078257 0.13604528 6028 1 1 6028 6028
254	41501153 78 5273480 5756718 0.13090848 0.14046592 2 0.002559998193 0.002693830959 0.005253829152 1.381031598383e-005
255	41501231 117 5381531 5947863 0.13305648 0.14549328 3 0.002701915837 0.002783926739 0.008234010778 2.2603025744834e-005
256	41501348 78 5406130 5526555 0.13360688 0.13604528 2 0.002662265307 0.002761481743 0.00542374705 1.4713437981778e-005
257	41501426 116584 5417858 5562836 0.133868007714 0.13658056 3017 1.68e-006 0.000301432286 0.58598849026799 0.00017609248322729
258	41618010 82758 5417858 5562836 0.133868007714 0.13658056 3017 1 1 3017 3017
259	41700768 39 5562836 5562836 0.13658056 0.13658056 1 0.002714232286 0.002714232286 0.002714232286 7.3670569023648e-006
260	41700807 116805 5636351 5756616 0.13806792 0.14046312 2995 9.0740421e-005 9.0740421e-005 0.27176756089499 2.4660302889756e-005
261	41817612 77870 5636351 5756616 0.13806792 0.14046312 2995 1 1 2995 2995
262	41895482 219286 5643985 6166687 0.1381601646 0.149582674267 5729 1.68e-006 1.74012e-006 0.0097410522000009 1.6567399683863e-008
263	42114768 167649 5643985 6166687 0.1381601646 0.149582674267 5729 1 1 5729 5729
264	42282417 39 5756616 5756616 0.14046312 0.14046312 1 0.002485940421 0.002485940421 0.002485940421 6.1798997767617e-006
265	42282456 41 5761391 5761391 0.14062182472 0.14062182472 1 0.00246334012 0.00246334012 0.00246334012 6.0680445468016e-006
266	42282497 218765 5809690 6166653 0.142900451496 0.149581879873 5707 1.68e-006 0.000300908504 0.58208428909613 0.00017197860144851
267	42501262 163614 5809690 6166653 0.142900451496 0.149581879873 5707 1 1 5707 5707
268	42664876 39 5949544 5949544 0.14554928 0.14554928 1 0.002650508504 0.002650508504 0.002650508504 7.0251953297763e-006
vector 269 Network.rack[2].Server[3].app e_Latency ETV
vector 270 Network.rack[2].Server[3].app e_packet ETV
vector 271 Network.rack[2].Server[3].app e_FCT ETV
27	42665078 930624 6166699 6688257 0.149582896843 0.16414893979 32768 1 1 32768 32768
28	43595702 1179595 6166699 6688257 0.149582896843 0.16414893979 32768 8.8e-007 0.000300793486 0.46079139319584 8.7312330390546e-005
0	44775297 890102 6166707 6791759 0.149583046101 0.167111533996 32768 1 1 32768 32768
1	45665399 1149689 6166707 6791759 0.149583046101 0.167111533996 32768 8.8e-007 0.000300863157 0.82485059583659 0.00016225118716684
vector 272 Network.rack[0].Server[5].app e_Latency ETV
vector 273 Network.rack[0].Server[5].app e_packet ETV
0	46815199 575092 6791767 7155496 0.167111982273 0.175711080846 21449 1 1 21449 21449
1	47390291 747171 6791767 7155490 0.167111982273 0.175711045555 21448 8.8e-007 0.00030075155 0.59696825859284 0.0001136933957724
2	48137462 110905 6558868 6672371 0.160766983837 0.16349008 3030 1.68e-006 0.000301576163 0.55240089747497 0.00016598383330589
3	48248367 77540 6558868 6672371 0.160766983837 0.16349008 3030 1 1 3030 3030
4	48325907 112341 6220431 6866646 0.151453831736 0.16898108626 3070 1.68e-006 0.000301576163 0.55246809747497 0.00016598394620189
5	48438248 78656 6220431 6866646 0.151453831736 0.16898108626 3070 1 1 3070 3070
6	48516904 118226 6166717 6457533 0.14958317567 0.15841864 3207 1.68e-006 0.00030138433 0.58623213545699 0.00011461063538428
7	48635130 77523 6166717 6457533 0.14958317567 0.15841864 3207 1 1 3207 3207
8	48712653 120775 6166717 7048109 0.14958317567 0.17405344 3277 1.68e-006 0.00030138433 0.593801936948 0.00011619870145315
9	48833428 79335 6166717 7048109 0.14958317567 0.17405344 3277 1 1 3277 3277
12	48912763 2746 6257638 7120675 0.1530312 0.175236424981 74 1.68e-006 8.3756974e-005 0.000515981092 2.711471952652e-008
13	48915509 2098 6257638 7120675 0.1530312 0.175236424981 74 1 1 74 74
14	48917607 198 6179305 7045589 0.15003 0.17403 9 0 0 0 0
15	48917805 38 6672371 6672371 0.16349008 0.16349008 1 0.002724776163 0.002724776163 0.002724776163 7.424405138453e-006
16	48917843 518 6220475 6866646 0.151455431736 0.16898108626 14 2.48e-006 0.002724776163 0.002768216163 7.424557285653e-006
18	48918361 928 6257729 7120675 0.153032 0.175236424981 25 2.48e-006 8.4556974e-005 0.000256178552 1.357075526021e-008
19	48919289 75 6185136 6457533 0.15008048 0.15841864 2 0.002566763813 0.00263018433 0.005196948143 1.3506146081504e-005
20	48919364 973 6185136 7048109 0.15008048 0.17405344 26 2.48e-006 0.00263018433 0.0078682864 1.4063851055773e-005
21	48920337 1369 6212628 6865125 0.151085729463 0.168929763609 37 1.68e-006 1.68e-006 6.216e-005 1.044288e-010
22	48921706 1073 6212628 6865125 0.151085729463 0.168929763609 37 1 1 37 37
23	48922779 1369 6212628 6865125 0.151085729463 0.168929763609 37 1.68e-006 1.68e-006 6.216e-005 1.044288e-010
24	48924148 1073 6212628 6865125 0.151085729463 0.168929763609 37 1 1 37 37
25	48925221 407 6212672 6865125 0.151087329463 0.168929763609 11 2.48e-006 4.08e-006 3.928e-005 1.444544e-010
26	48925628 407 6212672 6865125 0.151087329463 0.168929763609 11 2.48e-006 4.08e-006 3.928e-005 1.444544e-010
27	48926035 645123 6688273 7155461 0.16414973979 0.175710554272 22928 1 1 22928 22928
28	49571158 815713 6688273 7155461 0.16414973979 0.175710554272 22928 8.8e-007 0.000300792005 0.28448531537302 5.2336171414469e-005
29	50386871 2619 6185196 7048109 0.15008128 0.17405344 70 1.68e-006 0.00028778433 0.007569801491 1.588066068869e-006
30	50389490 1882 6185196 7048109 0.15008128 0.17405344 70 1 1 70 70
31	50391372 898 6185256 7048109 0.15008208 0.17405344 24 2.48e-006 0.00028858433 0.002671338257 5.5770497426874e-007
32	50392270 2365 6179569 7045870 0.15003112 0.17403232 64 1.68e-006 0.000297237533 0.001447422504 3.2654664422934e-007
33	50394635 1825 6179569 7045870 0.15003112 0.17403232 64 1 1 64 64
34	50396460 120048 6166693 7045870 0.149582679873 0.17403232 3305 1.68e-006 0.00030122021 0.265625903734 7.8637510764867e-005
35	50516508 90128 6166693 7045870 0.149582679873 0.17403232 3305 1 1 3305 3305
36	50606636 777 6179722 7045870 0.15003192 0.17403232 21 2.48e-006 0.000298037533 0.000739631252 1.6449698171787e-007
37	50607413 852 6172399 7045870 0.149697079873 0.17403232 23 2.48e-006 0.00277802021 0.005850531462 1.3324222363286e-005
38	50608265 3013 6180457 7045925 0.15003592 0.1740328 81 1.68e-006 0.00025602433 0.001823841348 3.901216944047e-007
39	50611278 2299 6180457 7045925 0.15003592 0.1740328 81 1 1 81 81
40	50613577 3013 6180457 7045925 0.15003592 0.1740328 81 1.68e-006 0.00025602433 0.001823841348 3.901216944047e-007
41	50616590 2299 6180457 7045925 0.15003592 0.1740328 81 1 1 81 81
42	50618889 969 6180925 7045925 0.15003832 0.1740328 26 2.48e-006 0.00025842433 0.00056548651 1.1035808790726e-007
43	50619858 969 6180925 7045925 0.15003832 0.1740328 26 2.48e-006 0.00025842433 0.00056548651 1.1035808790726e-007
44	50620827 3354 6213928 7045837 0.151146088235 0.174032 89 1.68e-006 0.000298517533 0.001753768127 2.9714107066248e-007
45	50624181 2522 6213928 7045837 0.151146088235 0.174032 89 1 1 89 89
46	50626703 118186 6213928 7045837 0.151146088235 0.174032 3150 1.68e-006 0.000301593486 0.271866301049 7.5734070397905e-005
47	50744889 87983 6213928 7045837 0.151146088235 0.174032 3150 1 1 3150 3150
48	50832872 1135 6213996 7045837 0.151148488235 0.174032 30 2.48e-006 0.000299317533 0.000726218001 1.294991735257e-007
49	50834007 1173 6213996 7045837 0.151148488235 0.174032 31 2.48e-006 0.002749593486 0.003475811487 7.6897635117793e-006
50	50835180 972 6363905 7097071 0.15673168 0.174888018075 26 1.68e-006 0.000234152931 0.002194659118 4.7590023837566e-007
51	50836152 706 6363905 7097071 0.15673168 0.174888018075 26 1 1 26 26
52	50836858 231258 6225510 7097071 0.151550225308 0.174888018075 6125 1.68e-006 0.000301534692 1.393470820234 0.00041769536350186
53	51068116 159085 6225510 7097071 0.151550225308 0.174888018075 6125 1 1 6125 6125
54	51227201 336 6363932 7097071 0.15673248 0.174888018075 9 2.48e-006 0.000236552931 0.000737507789 1.5737192728711e-007
55	51227537 412 6287587 7097071 0.15429488 0.174888018075 11 2.48e-006 0.002746334692 0.006218177173 1.5176312375645e-005
56	51227949 2405 6180593 6965566 0.15003664 0.171625041579 65 1.68e-006 0.00024634433 0.001191330877 1.8229770850356e-007
57	51230354 1847 6180593 6965566 0.15003664 0.171625041579 65 1 1 65 65
58	51232201 104406 6180593 7155483 0.15003664 0.17571088 2765 1.68e-006 0.000301077003 0.63476043418001 0.00019063409533231
59	51336607 71743 6180593 7155483 0.15003664 0.17571088 2765 1 1 2765 2765
60	51408350 777 6180751 6965566 0.15003744 0.171625041579 21 2.48e-006 0.00024714433 0.000512745069 8.220020736837e-008
61	51409127 777 6180751 6965566 0.15003744 0.171625041579 21 2.48e-006 0.00024714433 0.000512745069 8.220020736837e-008
62	51409904 1182 6214208 7046122 0.151158579084 0.17403464 32 1.68e-006 0.000293160386 0.001295233308 3.0404959309421e-007
63	51411086 899 6214208 7046122 0.151158579084 0.17403464 32 1 1 32 32
64	51411985 113329 6214208 7046122 0.151158579084 0.17403464 3063 1.68e-006 0.000293160386 0.37749099302799 4.7000223746768e-005
65	51525314 76674 6214208 7046122 0.151158579084 0.17403464 3063 1 1 3063 3063
66	51601988 406 6214228 7046122 0.151159379084 0.17403464 11 2.48e-006 0.000294760386 0.000449904436 1.0296150317327e-007
67	51602394 443 6214228 7046122 0.151159379084 0.17403464 12 2.48e-006 0.00254911612 0.002999020556 6.6009544964171e-006
70	51602837 1002 6399511 7034120 0.157380216904 0.173658352679 27 1.68e-006 0.000163786052 0.000369633434 5.3722509608978e-008
71	51603839 768 6399511 7034120 0.157380216904 0.173658352679 27 1 1 27 27
72	51604607 2437 6180625 7035844 0.1500368 0.173713391262 65 1.68e-006 0.00024490433 0.00333742725 7.0392895095278e-007
73	51607044 1814 6180625 7035844 0.1500368 0.173713391262 65 1 1 65 65
74	51608858 352675 6180625 7035844 0.1500368 0.173713391262 9055 1.68e-006 0.000818424239 2.89452043125 0.0019553098204288
75	51961533 258124 6180625 7035844 0.1500368 0.173713391262 9055 1 1 9055 9055
76	52219657 866 6180784 7035844 0.1500376 0.173713391262 23 2.48e-006 0.00024570433 0.001146220355 2.3603980472055e-007
77	52220523 984 6180784 7035844 0.1500376 0.173713391262 26 2.48e-006 0.003297624239 0.010273043015 2.8236051490084e-005
78	52221507 2595 6257656 7111610 0.15303136 0.175091222257 70 1.68e-006 0.000308454489 0.003000494935 8.5044699350267e-007
79	52224102 1982 6257656 7111610 0.15303136 0.175091222257 70 1 1 70 70
80	52226084 112706 6257656 7111610 0.15303136 0.175091222257 2982 1.68e-006 0.000308478356 0.726361163587 0.00022137440360053
81	52338790 76962 6257656 7111610 0.15303136 0.175091222257 2982 1 1 2982 2982
82	52415752 816 6257747 7111610 0.15303216 0.175091222257 22 2.48e-006 0.000310854489 0.001063038531 2.8963867082702e-007
83	52416568 854 6257747 7111610 0.15303216 0.175091222257 23 2.48e-006 0.002637278356 0.003700316887 7.2448757978531e-006
84	52417422 1691 6292889 7106689 0.154390588443 0.175011192737 45 1.68e-006 0.000145753088 0.000364177488 4.2610762212451e-008
85	52419113 1297 6292889 7106689 0.154390588443 0.175011192737 45 1 1 45 45
86	52420410 1691 6292889 7106689 0.154390588443 0.175011192737 45 1.68e-006 0.000145753088 0.000364177488 4.2610762212451e-008
87	52422101 1297 6292889 7106689 0.154390588443 0.175011192737 45 1 1 45 45
88	52423398 599 6292937 7106689 0.154392188443 0.175011192737 16 2.48e-006 0.000146553088 0.000194260916 2.1634693599081e-008
89	52423997 599 6292937 7106689 0.154392188443 0.175011192737 16 2.48e-006 0.000146553088 0.000194260916 2.1634693599081e-008
90	52424596 1476 6220431 6866646 0.151453831736 0.16898108626 40 1.68e-006 1.68e-006 6.72e-005 1.12896e-010
91	52426072 1156 6220431 6866646 0.151453831736 0.16898108626 40 1 1 40 40
92	52427228 480 6220475 6866646 0.151455431736 0.16898108626 13 2.48e-006 4.08e-006 4.344e-005 1.521472e-010
93	52427708 1842 6257596 6907736 0.15303088 0.169976876391 50 1.68e-006 0.000231459401 0.001003117604 2.1442364764512e-007
[...]
122	170087837 666 11382597 12305041 0.295208986813 0.313954989489 17 2.48e-006 0.002727544431 0.00578470196 1.4807433527579e-005
123	170088503 967 11436636 12139249 0.295902666813 0.309636458473 24 1.68e-006 0.000303364615 0.000951032001 2.7474267889805e-007
124	170089470 728 11436636 12139249 0.295902666813 0.309636458473 24 1 1 24 24
125	170090198 115663 11436636 12139249 0.295902666813 0.309636458473 2933 1.68e-006 0.000304024356 0.38178567522101 0.00011467261087095
126	170205861 85927 11436636 12139249 0.295902666813 0.309636458473 2933 1 1 2933 2933
127	170291788 281 11436809 12139249 0.295905066813 0.309636458473 7 2.48e-006 0.000304964615 0.000330259154 9.3123306677437e-008
128	170292069 321 11436809 12139249 0.295905066813 0.309636458473 8 2.48e-006 0.002630424356 0.00296068351 7.0122555993155e-006
129	170292390 14760 11382279 11403930 0.29520296 0.29549736 369 0.000301253187 0.000301253187 0.111162426003 3.3488035108055e-005
130	170307150 9963 11382279 11403930 0.29520296 0.29549736 369 1 1 369 369
131	170317113 16414 11382279 12340967 0.29520296 0.315331380267 411 1.68e-006 0.000301253187 0.111233164695 3.3488154257243e-005
132	170333527 11265 11382279 12340967 0.29520296 0.315331380267 411 1 1 411 411
133	170344792 238079 11479902 12010244 0.296501135814 0.30619328 6030 1.68e-006 0.000302624186 0.88366044487805 0.00026526211439304
134	170582871 175294 11479902 12010244 0.296501135814 0.30619328 6030 1 1 6030 6030
135	170758165 1007 11382302 12141462 0.295203391285 0.309698377909 25 1.68e-006 0.000217973187 0.001351134906 2.7713397209587e-007
136	170759172 749 11382302 12141462 0.295203391285 0.309698377909 25 1 1 25 25
137	170759921 237958 11382259 12282675 0.295202591285 0.31245736 5956 1.68e-006 0.000301168715 0.463031909165 0.00013510659458424
138	170997879 178666 11382259 12282675 0.295202591285 0.31245736 5956 1 1 5956 5956
139	171176545 403 11382302 12141462 0.295203391285 0.309698377909 10 2.48e-006 0.000219573187 0.00046944795 9.3879748409237e-008
140	171176948 483 11382302 12282675 0.295203391285 0.31245736 12 2.48e-006 0.002753104212 0.005958120877 1.5156798745028e-005
141	171177431 1757 11448189 12329506 0.296083795362 0.3150328 45 1.68e-006 0.000265614144 0.001470311424 3.349633530365e-007
142	171179188 1367 11448189 12329506 0.296083795362 0.3150328 45 1 1 45 45
143	171180555 118690 11448189 12329506 0.296083795362 0.3150328 3011 1.68e-006 0.000301181753 0.38352589845099 0.00011454423565009
144	171299245 88277 11448189 12329506 0.296083795362 0.3150328 3011 1 1 3011 3011
145	171387522 586 11448353 12329506 0.296086195362 0.3150328 15 2.48e-006 0.000267214144 0.000514103808 1.1326630319777e-007
146	171388108 626 11448353 12329506 0.296086195362 0.3150328 16 2.48e-006 0.002673181753 0.003187285561 7.2591669877699e-006
147	171388734 681 11433749 12004016 0.29585883181 0.306086795385 17 1.68e-006 2.999438e-006 3.0549434e-005 5.6683586615476e-011
148	171389415 525 11433749 12004016 0.29585883181 0.306086795385 17 1 1 17 17
149	171389940 117666 11413007 12004016 0.29559643181 0.306086795385 3053 1.68e-006 0.00030092819 0.49076015266399 0.00014644463827999
150	171507606 86754 11413007 12004016 0.29559643181 0.306086795385 3053 1 1 3053 3053
151	171594360 241 11433851 12004016 0.29586043181 0.306086795385 6 2.48e-006 4.08e-006 2.0249624e-005 6.983946791044e-011
152	171594601 280 11433851 12004016 0.29586043181 0.306086795385 7 2.48e-006 0.00272892819 0.002749177814 7.4471189056446e-006
153	171594881 1069 11382382 12006405 0.295204986813 0.306121995385 27 1.68e-006 0.000197888427 0.000641197865 1.1758766584583e-007
154	171595950 822 11382382 12006405 0.295204986813 0.306121995385 27 1 1 27 27
155	171596772 355 11382425 12006405 0.295205786813 0.306121995385 9 2.48e-006 0.000199488427 0.000228731573 3.9919064264192e-008
156	171597127 1869 11382253 12343815 0.295202586813 0.315422 48 1.68e-006 0.000105501803 0.000315492836 2.2709297883098e-008
157	171598996 1465 11382253 12343815 0.295202586813 0.315422 48 1 1 48 48
158	171600461 35901 11382253 12359065 0.295202586813 0.3157348 926 1.68e-006 0.000105535284 0.092197072187998 9.6385540040994e-006
159	171636362 24083 11382253 12359065 0.295202586813 0.3157348 926 1 1 926 926
160	171660445 661 11382339 12343815 0.295204186813 0.315422 17 2.48e-006 0.000106301803 0.000171186418 1.1734983852749e-008
161	171661106 661 11382339 12343815 0.295204186813 0.315422 17 2.48e-006 0.000106301803 0.000171186418 1.1734983852749e-008
162	171661767 1381 11546130 12343668 0.297569786813 0.315417026954 35 1.68e-006 0.000308545351 0.00397193355 1.0616021307377e-006
163	171663148 1013 11546130 12343668 0.297569786813 0.315417026954 35 1 1 35 35
164	171664161 124222 11546130 12343668 0.297569786813 0.315417026954 3111 1.68e-006 0.000309159864 0.88274238227805 0.00026931326788885
165	171788383 84861 11546130 12343668 0.297569786813 0.315417026954 3111 1 1 3111 3111
166	171873244 127 12019627 12311666 0.30638056 0.314113032566 3 0.002693044615 0.00428470533 0.011225094381 4.3651123821331e-005
167	171873371 487 11439226 12329534 0.295942474549 0.31503296 12 2.48e-006 0.00428470533 0.011518656074 4.3687805566852e-005
168	171873858 434 11546179 12343668 0.297570586813 0.315417026954 11 2.48e-006 0.000310945351 0.001237689602 3.2659771628455e-007
169	171874292 474 11546179 12343668 0.297570586813 0.315417026954 12 2.48e-006 0.002769159864 0.004006849466 7.9948440686731e-006
170	171874766 1654 11452321 12340967 0.296151466813 0.315331380267 42 1.68e-006 1.724673e-006 7.0738692e-005 1.1914918782772e-010
171	171876420 1302 11452321 12340967 0.296151466813 0.315331380267 42 1 1 42 42
172	171877722 511 11452485 12340967 0.296153866813 0.315331380267 13 2.48e-006 4.124673e-006 4.5084673e-005 1.6172972735693e-010
173	171878233 551 11403930 12340967 0.29549736 0.315331380267 14 2.48e-006 0.002634853187 0.00267993786 6.9426130467714e-006
174	171878784 977 11678143 12304912 0.300480904335 0.313947219614 25 1.68e-006 2.874938e-006 4.3589876e-005 7.7485836207688e-011
175	171879761 769 11678143 12304912 0.300480904335 0.313947219614 25 1 1 25 25
176	171880530 185910 11678143 12359072 0.300480904335 0.31573488 4761 1.68e-006 0.000301233101 0.62216934166501 0.00018600581543224
177	172066440 138445 11678143 12359072 0.300480904335 0.31573488 4761 1 1 4761 4761
178	172204885 314 11678232 12304912 0.300483304335 0.313947219614 8 2.48e-006 4.08e-006 2.8234938e-005 1.0314996930384e-010
179	172205199 354 11678232 12304912 0.300483304335 0.313947219614 9 2.48e-006 0.002632433101 0.002660668039 6.9298071812098e-006
180	172205553 184933 11720889 12359072 0.301334606899 0.31573488 4736 1.68e-006 0.000301233101 0.62212575178901 0.00018600573794641
181	172390486 137676 11720889 12359072 0.301334606899 0.31573488 4736 1 1 4736 4736
182	172528162 896 11382941 12320989 0.295215386813 0.31457764546 23 1.68e-006 7.0297233e-005 0.000244491699 1.4881550902369e-008
183	172529058 697 11382941 12320989 0.295215386813 0.31457764546 23 1 1 23 23
184	172529755 120206 11382941 12320989 0.295215386813 0.31457764546 3072 1.68e-006 0.000301173187 0.124864593312 3.6213771049429e-005
185	172649961 93620 11382941 12320989 0.295215386813 0.31457764546 3072 1 1 3072 3072
186	172743581 273 11382984 12320989 0.295216186813 0.31457764546 7 2.48e-006 7.1897233e-005 9.3177233e-005 5.2468185130563e-009
187	172743854 313 11382984 12320989 0.295216186813 0.31457764546 8 2.48e-006 0.002739573187 0.00283275042 7.5105080654424e-006
188	172744167 1285 11544319 12344499 0.297538503668 0.315443310608 33 1.68e-006 0.000267628348 0.001192489711 2.5444570899666e-007
189	172745452 990 11544319 12344499 0.297538503668 0.315443310608 33 1 1 33 33
190	172746442 215944 11382270 12344499 0.295202710439 0.315443310608 5507 1.68e-006 0.000301378248 0.364836570107 0.00010672816862294
191	172962386 165992 11382270 12344499 0.295202710439 0.315443310608 5507 1 1 5507 5507
192	173128378 547 11544457 12344499 0.297540903668 0.315443310608 14 2.48e-006 0.000269228348 0.000417756495 8.610755203939e-008
193	173128925 627 11537324 12344499 0.29741728 0.315443310608 16 2.48e-006 0.002762178248 0.005856984304 1.4882330577814e-005
194	173129552 961 11439053 12329534 0.295940074549 0.31503296 24 1.68e-006 0.000144698941 0.000694367908 8.7021210355188e-008
195	173130513 732 11439053 12329534 0.295940074549 0.31503296 24 1 1 24 24
196	173131245 360 11439226 12329534 0.295942474549 0.31503296 9 2.48e-006 0.000145498941 0.000293561693 3.6681745521259e-008
197	173131605 468 11472486 11711882 0.296429278024 0.301265890865 12 1.68e-006 1.68e-006 2.016e-005 3.38688e-011
198	173132073 372 11472486 11711882 0.296429278024 0.301265890865 12 1 1 12 12
199	173132445 238849 11472486 12104559 0.296429278024 0.308521995385 5940 1.68e-006 0.000301236246 0.11821202435701 3.2774386385616e-005
200	173371294 182696 11472486 12104559 0.296429278024 0.308521995385 5940 1 1 5940 5940
201	173553990 156 11472658 11711882 0.296431678024 0.301265890865 4 2.48e-006 4.08e-006 1.312e-005 4.55936e-011
202	173554146 236 11472658 12104559 0.296431678024 0.308521995385 6 2.48e-006 0.002652436246 0.005056836246 1.2753683671095e-005
203	173554382 238381 11552143 12104559 0.297668283754 0.308521995385 5928 1.68e-006 0.000301236246 0.11819186435701 3.2774352516816e-005
204	173792763 182324 11552143 12104559 0.297668283754 0.308521995385 5928 1 1 5928 5928
205	173975087 116777 11383279 11564437 0.295221786813 0.29786288 2928 1.68e-006 0.000301173187 0.317244754777 9.4432306339801e-005
206	174091864 86604 11383279 11564437 0.295221786813 0.29786288 2928 1 1 2928 2928
207	174178468 40 11403930 11403930 0.29549736 0.29549736 1 0.002634853187 0.002634853187 0.002634853187 6.9424513170441e-006
208	174178508 80 11630328 12010244 0.29919568 0.30619328 2 0.002696224186 0.002729931087 0.005426155273 1.472214860094e-005
209	174178588 122841 11648933 11779272 0.299572200136 0.30233968 3076 1.68e-006 0.000309159864 0.87877044872805 0.00026825166575812
210	174301429 83848 11648933 11779272 0.299572200136 0.30233968 3076 1 1 3076 3076
211	174385277 40 11893953 11893953 0.30396536 0.30396536 1 0.002632433101 0.002632433101 0.002632433101 6.9297040312405e-006
212	174385317 122179 11382263 11562444 0.295202613284 0.29782848 2911 3.389616e-006 0.000301256332 0.30713815474401 9.0595846222004e-005
213	174507496 86249 11382263 11562444 0.295202613284 0.29782848 2911 1 1 2911 2911
214	174593745 80 11674654 12104559 0.30031904 0.308521995385 2 0.00239128 0.002652436246 0.005043716246 1.2753638077495e-005
215	174593825 40 11564437 11564437 0.29786288 0.29786288 1 0.002642773187 0.002642773187 0.002642773187 6.9842501179261e-006
216	174593865 40 11779272 11779272 0.30233968 0.30233968 1 0.002769159864 0.002769159864 0.002769159864 7.6682463523885e-006
217	174593905 119377 11786535 11960225 0.302424925398 0.30512048 2994 1.68e-006 0.000302834602 0.78815338582199 0.00023752504149136
218	174713282 82370 11786535 11960225 0.302424925398 0.30512048 2994 1 1 2994 2994
219	174795652 40 11562444 11562444 0.29782848 0.29782848 1 0.002772456332 0.002772456332 0.002772456332 7.6865141128469e-006
220	174795692 119310 11548648 11675372 0.297611386813 0.30034928 3049 1.68e-006 0.000301173187 0.124620101613 3.6198889498527e-005
221	174915002 92923 11548648 11675372 0.297611386813 0.30034928 3049 1 1 3049 3049
222	175007925 40 11960225 11960225 0.30512048 0.30512048 1 0.002697234602 0.002697234602 0.002697234602 7.2750744982261e-006
225	175007965 238995 11691606 12102496 0.300839590336 0.30843832 6034 1.68e-006 0.000303449664 0.27143815546099 6.3648814942984e-005
226	175246960 172378 11691606 12102496 0.300839590336 0.30843832 6034 1 1 6034 6034
227	175419338 40 11675372 11675372 0.30034928 0.30034928 1 0.002739573187 0.002739573187 0.002739573187 7.5052612469293e-006
228	175419378 238778 11807356 12285671 0.302718623389 0.31262848 6027 1.68e-006 0.000303536611 1.128412685335 0.00033950162661002
229	175658156 171937 11807356 12285671 0.302718623389 0.31262848 6027 1 1 6027 6027
230	175830093 80 11871830 12102496 0.30358296 0.30843832 2 0.002402475809 0.002745049664 0.005147525473 1.3307187670657e-005
232	175830173 235881 11994467 12213616 0.30603088 0.31080848 5971 0.000145131087 0.002506731087 8.2820505341139 0.014302802473419
233	176066054 161217 11994467 12213616 0.30603088 0.31080848 5971 1 1 5971 5971
234	176227271 80 11973071 12285671 0.30541408 0.31262848 2 0.002697136611 0.002727544431 0.005424681042 1.4714044521476e-005
235	176227351 91944 12299580 12359073 0.313566621737 0.31573488 2335 1.68e-006 0.000302738263 0.269997013177 7.987792372684e-005
236	176319295 68869 12299580 12359073 0.313566621737 0.31573488 2335 1 1 2335 2335
237	176388164 79 12205241 12213616 0.31065328 0.31080848 2 0.00487126073 0.004915531087 0.009786791817 4.7891626966904e-005
238	176388243 214659 11382270 11871713 0.295202710439 0.30358128 5474 1.68e-006 0.000301378248 0.363644080396 0.00010647372291394
239	176602902 165002 11382270 11871713 0.295202710439 0.30358128 5474 1 1 5474 5474
241	176767904 14001 12347595 12359051 0.315447943851 0.315734343851 359 1.68e-006 1.68e-006 0.00060312 1.0132416e-009
242	176781905 11129 12347595 12359051 0.315447943851 0.315734343851 359 1 1 359 359
243	176793034 80 11537324 11871713 0.29741728 0.30358128 2 0.002677049561 0.002762178248 0.005439227809 1.4796223025775e-005
244	176793114 114696 11918923 12047711 0.304399735644 0.30702848 2909 1.68e-006 0.000304024356 0.38083464322001 0.00011439786819205
245	176907810 85199 11918923 12047711 0.304399735644 0.30702848 2909 1 1 2909 2909
246	176993009 159861 11382274 11895158 0.29520288 0.30398776 4041 1.68e-006 0.000304772723 0.68717167415004 0.00020695478226021
247	177152870 116223 11382274 11895158 0.29520288 0.30398776 4041 1 1 4041 4041
249	177269093 127450 11839156 11985939 0.303195551798 0.305657201927 3078 1.68e-006 1.730129e-006 0.0052634231580001 9.0023711482382e-009
250	177396543 95418 11839156 11985939 0.303195551798 0.305657201927 3078 1 1 3078 3078
251	177491961 40 12047711 12047711 0.30702848 0.30702848 1 0.002630424356 0.002630424356 0.002630424356 6.919132292638e-006
254	177492001 80 11446583 11895158 0.29605728 0.30398776 2 0.002681044615 0.002774372723 0.005455417338 1.4885144233747e-005
255	177492081 44 11985939 11985939 0.305657201927 0.305657201927 1 0.002463330129 0.002463330129 0.002463330129 6.0679953244392e-006
257	177492125 236737 12093552 12296589 0.30819809927 0.31355888 6012 1.68e-006 0.00030646073 1.366260764435 0.00039996910904024
258	177728862 164322 12093552 12296589 0.30819809927 0.31355888 6012 1 1 6012 6012
259	177893184 79 12224479 12296589 0.31096368 0.31355888 2 0.002648415763 0.00276726073 0.005415676493 1.4671838001507e-005
260	177893263 116933 11590720 11702557 0.298365858247 0.30103736 2966 1.68e-006 0.000301181753 0.38205558702699 0.00011420927229705
261	178010196 86910 11590720 11702557 0.298365858247 0.30103736 2966 1 1 2966 2966
262	178097106 34032 12329311 12359065 0.3150316 0.3157348 878 0.000103935284 0.000105535284 0.091881579351998 9.6158447062163e-006
263	178131138 22618 12329311 12359065 0.3150316 0.3157348 878 1 1 878 878
264	178153756 40 11702557 11702557 0.30103736 0.30103736 1 0.002673181753 0.002673181753 0.002673181753 7.1459006845722e-006
266	178153796 119924 11386822 11569956 0.295230683754 0.29796536 3045 1.68e-006 0.000301156246 0.35520333157401 0.00010602784860853
267	178273720 89719 11386822 11569956 0.295230683754 0.29796536 3045 1 1 3045 3045
268	178363439 40 11569956 11569956 0.29796536 0.29796536 1 0.002736356246 0.002736356246 0.002736356246 7.4876455050232e-006
269	178363479 116985 11413007 11586038 0.29559643181 0.29832368 3036 1.68e-006 0.00030092819 0.49072960322999 0.00014644458159641
270	178480464 86229 11413007 11586038 0.29559643181 0.29832368 3036 1 1 3036 3036
271	178566693 39 11586038 11586038 0.29832368 0.29832368 1 0.00272892819 0.00272892819 0.00272892819 7.4470490661767e-006
272	178566732 236951 11382259 12282675 0.295202591285 0.31245736 5931 1.68e-006 0.000301168715 0.461680774259 0.00013482946061214
273	178803683 177917 11382259 12282675 0.295202591285 0.31245736 5931 1 1 5931 5931
274	178981600 80 11560173 12282675 0.29779168 0.31245736 2 0.002735568715 0.002753104212 0.005488672927 1.5062918996619e-005
0	178981680 200 12359089 12359153 0.31573536888 0.31573696888 7 1 1 7 7
1	178981880 249 12359089 12359153 0.31573536888 0.31573696888 7 8.8e-007 8.8e-007 6.16e-006 5.4208e-012
27	178982129 90 12359092 12359156 0.315735421737 0.315737021737 3 1 1 3 3
28	178982219 111 12359092 12359156 0.315735421737 0.315737021737 3 8.8e-007 8.8e-007 2.64e-006 2.3232e-012
46	178982330 78 12359105 12359137 0.31573568 0.31573648 2 0.000302738263 0.000302738263 0.000605476526 1.8330091176851e-007
47	178982408 52 12359105 12359137 0.31573568 0.31573648 2 1 1 2 2
107	178982460 117 12359083 12359147 0.315735143851 0.315736743851 3 1.68e-006 1.68e-006 5.04e-006 8.4672e-012
108	178982577 93 12359083 12359147 0.315735143851 0.315736743851 3 1 1 3 3
158	178982670 117 12359097 12359161 0.3157356 0.3157372 3 0.000105535284 0.000105535284 0.000316605852 3.3413088506882e-008
159	178982787 78 12359097 12359161 0.3157356 0.3157372 3 1 1 3 3
176	178982865 117 12359104 12359168 0.31573568 0.31573728 3 0.00030119112 0.00030119112 0.00090357336 2.7214827230056e-007
177	178982982 81 12359104 12359168 0.31573568 0.31573728 3 1 1 3 3
180	178983063 117 12359104 12359168 0.31573568 0.31573728 3 0.00030119112 0.00030119112 0.00090357336 2.7214827230056e-007
181	178983180 81 12359104 12359168 0.31573568 0.31573728 3 1 1 3 3
235	178983261 80 12359105 12359137 0.31573568 0.31573648 2 0.000302738263 0.000302738263 0.000605476526 1.8330091176851e-007
236	178983341 54 12359105 12359137 0.31573568 0.31573648 2 1 1 2 2
241	178983395 117 12359083 12359147 0.315735143851 0.315736743851 3 1.68e-006 1.68e-006 5.04e-006 8.4672e-012
242	178983512 93 12359083 12359147 0.315735143851 0.315736743851 3 1 1 3 3
262	178983605 117 12359097 12359161 0.3157356 0.3157372 3 0.000105535284 0.000105535284 0.000316605852 3.3413088506882e-008
263	178983722 78 12359097 12359161 0.3157356 0.3157372 3 1 1 3 3
0	178983800 230 12359170 12359241 0.315737344716 0.315739143851 8 1 1 8 8
1	178984030 286 12359170 12359241 0.315737344716 0.315739143851 8 8.8e-007 8.8e-007 7.04e-006 6.1952e-012
27	178984316 60 12359188 12359220 0.315737821737 0.315738621737 2 1 1 2 2
28	178984376 74 12359188 12359220 0.315737821737 0.315738621737 2 8.8e-007 8.8e-007 1.76e-006 1.5488e-012
46	178984450 117 12359169 12359233 0.31573728 0.31573888 3 0.000302738263 0.000302738263 0.000908214789 2.7495136765277e-007
47	178984567 78 12359169 12359233 0.31573728 0.31573888 3 1 1 3 3
107	178984645 78 12359179 12359211 0.315737543851 0.315738343851 2 1.68e-006 1.68e-006 3.36e-006 5.6448e-012
108	178984723 62 12359179 12359211 0.315737543851 0.315738343851 2 1 1 2 2
158	178984785 77 12359193 12359225 0.315738 0.3157388 2 0.000105535284 0.000105535284 0.000211070568 2.2275392337921e-008
159	178984862 51 12359193 12359225 0.315738 0.3157388 2 1 1 2 2
176	178984913 78 12359200 12359232 0.31573808 0.31573888 2 0.00030119112 0.00030119112 0.00060238224 1.8143218153371e-007
177	178984991 54 12359200 12359232 0.31573808 0.31573888 2 1 1 2 2
180	178985045 78 12359200 12359232 0.31573808 0.31573888 2 0.00030119112 0.00030119112 0.00060238224 1.8143218153371e-007
181	178985123 54 12359200 12359232 0.31573808 0.31573888 2 1 1 2 2
235	178985177 120 12359169 12359233 0.31573728 0.31573888 3 0.000302738263 0.000302738263 0.000908214789 2.7495136765277e-007
236	178985297 81 12359169 12359233 0.31573728 0.31573888 3 1 1 3 3
241	178985378 78 12359179 12359211 0.315737543851 0.315738343851 2 1.68e-006 1.68e-006 3.36e-006 5.6448e-012
242	178985456 62 12359179 12359211 0.315737543851 0.315738343851 2 1 1 2 2
262	178985518 77 12359193 12359225 0.315738 0.3157388 2 0.000105535284 0.000105535284 0.000211070568 2.2275392337921e-008
263	178985595 51 12359193 12359225 0.315738 0.3157388 2 1 1 2 2

